// Generated for: spectre
// Generated on: Feb 15 15:02:32 2021
// Design library name: EMG_TestBench
// Design cell name: TB_Digital_Stimulus_EMG_NMES_V2
// Design view name: config
simulator lang=spectre binding=vlog  
global 0
