// Generated for: spectre
// Generated on: Feb 22 11:14:02 2021
// Design library name: Stimulator_TestBench
// Design cell name: TB_ST_OutputDriver
// Design view name: config
simulator lang=spectre binding=vlog  
global 0
