// Generated for: spectre
// Generated on: Mar 23 16:07:39 2021
// Design library name: Stimulator_TestBench
// Design cell name: TB_CurrentMirror_DC
// Design view name: schematic
simulator lang=spectre
global 0 vdde! vdd3!
parameters W=60u Wp=30u
include "/pkg/xfab/XKIT/xh018/cadence/v8_0/spectre/v8_0_1/lpmos/config.scs" section=default
include "/pkg/xfab/XKIT/xh018/cadence/v8_0/spectre/v8_0_1/lpmos/param.scs" section=3s
include "/pkg/xfab/XKIT/xh018/cadence/v8_0/spectre/v8_0_1/lpmos/bip.scs" section=tm
include "/pkg/xfab/XKIT/xh018/cadence/v8_0/spectre/v8_0_1/lpmos/cap.scs" section=tm
include "/pkg/xfab/XKIT/xh018/cadence/v8_0/spectre/v8_0_1/lpmos/dio.scs" section=tm
include "/pkg/xfab/XKIT/xh018/cadence/v8_0/spectre/v8_0_1/lpmos/mos.scs" section=tm
include "/pkg/xfab/XKIT/xh018/cadence/v8_0/spectre/v8_0_1/lpmos/photo.scs" section=tm
include "/pkg/xfab/XKIT/xh018/cadence/v8_0/spectre/v8_0_1/lpmos/res.scs" section=tm

// Library name: GATES_3V
// Cell name: invrv3
// View name: schematic
subckt invrv3 in out inh_ground_gnd inh_power_vdd3
parameters GT_PDW GT_PDL=350.00n sx=4.8e-07 lc=2.7e-07 GT_PUW \
        GT_PUL=300.00n
    MN1 (out in inh_ground_gnd inh_ground_gnd) ne3 w=GT_PDW l=GT_PDL \
        as=sx*(GT_PDW) ad=sx*(GT_PDW) ps=2*sx+(GT_PDW) pd=2*sx+(GT_PDW) \
        nrs=lc/(GT_PDW) nrd=lc/(GT_PDW) m=(1)*(1) par1=((1)*(1)) \
        xf_subext=0
    MP1 (out in inh_power_vdd3 inh_power_vdd3) pe3 w=GT_PUW l=GT_PUL \
        as=sx*(GT_PUW) ad=sx*(GT_PUW) ps=2*sx+(GT_PUW) pd=2*sx+(GT_PUW) \
        nrs=lc/(GT_PUW) nrd=lc/(GT_PUW) m=(1)*(1) par1=((1)*(1))
ends invrv3
// End of subcircuit definition.

// Library name: D_CELLS_3V
// Cell name: IN_3VX2
// View name: cmos_sch
subckt IN_3VX2 A Q inh_ground_gnd inh_power_vdd3
    invr_1 (A Q inh_ground_gnd inh_power_vdd3) invrv3 GT_PDW=960.00n \
        GT_PDL=350.00n sx=4.8e-07 lc=2.7e-07 GT_PUW=2.94u GT_PUL=300.00n
ends IN_3VX2
// End of subcircuit definition.

// Library name: D_CELLS_M3V
// Cell name: LSHVT18U3VX1
// View name: cmos_sch
subckt LSHVT18U3VX1 A Q inh_ground_gnd inh_power_vdd3 inh_power_vdde
    M6 (Q net20 inh_power_vdd3 inh_power_vdd3) pe3 w=1.46u l=300n \
        as=7.008e-13 ad=7.008e-13 ps=3.88e-06 pd=3.88e-06 nrs=0.184932 \
        nrd=0.184932 m=(1)*(1) par1=((1)*(1))
    M8 (net4 A inh_power_vdde inh_power_vdd3) pe3 w=1.48u l=300n \
        as=7.104e-13 ad=7.104e-13 ps=3.92e-06 pd=3.92e-06 nrs=0.182432 \
        nrd=0.182432 m=(1)*(1) par1=((1)*(1))
    M9 (net20 A net024 inh_power_vdd3) pe3 w=420.0n l=300n as=2.016e-13 \
        ad=2.016e-13 ps=1.8e-06 pd=1.8e-06 nrs=0.642857 nrd=0.642857 \
        m=(1)*(1) par1=((1)*(1))
    M0 (net10 net4 net023 inh_power_vdd3) pe3 w=420.0n l=300n as=2.016e-13 \
        ad=2.016e-13 ps=1.8e-06 pd=1.8e-06 nrs=0.642857 nrd=0.642857 \
        m=(1)*(1) par1=((1)*(1))
    M2 (net023 net20 inh_power_vdd3 inh_power_vdd3) pe3 w=420.0n l=300n \
        as=2.016e-13 ad=2.016e-13 ps=1.8e-06 pd=1.8e-06 nrs=0.642857 \
        nrd=0.642857 m=(1)*(1) par1=((1)*(1))
    M4 (net024 net10 inh_power_vdd3 inh_power_vdd3) pe3 w=420.0n l=300n \
        as=2.016e-13 ad=2.016e-13 ps=1.8e-06 pd=1.8e-06 nrs=0.642857 \
        nrd=0.642857 m=(1)*(1) par1=((1)*(1))
    M3 (net20 A inh_ground_gnd inh_ground_gnd) ne3 w=1.31u l=350.0n \
        as=6.288e-13 ad=6.288e-13 ps=3.58e-06 pd=3.58e-06 nrs=0.206107 \
        nrd=0.206107 m=(1)*(1) par1=((1)*(1)) xf_subext=0
    M5 (Q net20 inh_ground_gnd inh_ground_gnd) ne3 w=890.0n l=350.0n \
        as=4.272e-13 ad=4.272e-13 ps=2.74e-06 pd=2.74e-06 nrs=0.303371 \
        nrd=0.303371 m=(1)*(1) par1=((1)*(1)) xf_subext=0
    M7 (net4 A inh_ground_gnd inh_ground_gnd) ne3 w=420.0n l=350.0n \
        as=2.016e-13 ad=2.016e-13 ps=1.8e-06 pd=1.8e-06 nrs=0.642857 \
        nrd=0.642857 m=(1)*(1) par1=((1)*(1)) xf_subext=0
    M1 (net10 net4 inh_ground_gnd inh_ground_gnd) ne3 w=1.31u l=350.0n \
        as=6.288e-13 ad=6.288e-13 ps=3.58e-06 pd=3.58e-06 nrs=0.206107 \
        nrd=0.206107 m=(1)*(1) par1=((1)*(1)) xf_subext=0
ends LSHVT18U3VX1
// End of subcircuit definition.

// Library name: Stimulator_TestBench
// Cell name: TB_CurrentMirror_DC
// View name: schematic
I31 (net57 D0_3v 0 vdd3!) IN_3VX2
I3 (net72 D1_3v 0 vdd3!) IN_3VX2
I5 (net71 D2_3v 0 vdd3!) IN_3VX2
I7 (net70 D3_3v 0 vdd3!) IN_3VX2
I9 (net75 D4_3v 0 vdd3!) IN_3VX2
I18 (en_3v enb_3v 0 vdd3!) IN_3VX2
M43 (vdd3 net2 net37 0) ne3 w=2u l=1u as=9.6e-13 ad=9.6e-13 ps=4.96e-06 \
        pd=4.96e-06 nrs=0.135 nrd=0.135 m=(1)*(1) par1=((1)*(1)) \
        xf_subext=0
M37 (VBp2 net37 net8 0) ne3 w=10u l=350.0n as=4.8e-12 ad=4.8e-12 \
        ps=2.096e-05 pd=2.096e-05 nrs=0.027 nrd=0.027 m=(1)*(1) \
        par1=((1)*(1)) xf_subext=0
M28 (net37 net8 0 0) ne3 w=10u l=350.0n as=4.8e-12 ad=4.8e-12 ps=2.096e-05 \
        pd=2.096e-05 nrs=0.027 nrd=0.027 m=(1)*(1) par1=((1)*(1)) \
        xf_subext=0
M53 (net2 net2 0 0) ne3 w=2u l=5u as=9.6e-13 ad=9.6e-13 ps=4.96e-06 \
        pd=4.96e-06 nrs=0.135 nrd=0.135 m=(1)*(1) par1=((1)*(1)) \
        xf_subext=0
M26 (net14 net14 0 0) ne3 w=40u l=2u as=1.92e-11 ad=1.92e-11 ps=8.096e-05 \
        pd=8.096e-05 nrs=0.00675 nrd=0.00675 m=(1)*(1) par1=((1)*(1)) \
        xf_subext=0
M13 (net075 net14 0 0) ne3 w=40u l=2u as=1.248e-11 ad=1.08e-11 \
        ps=4.8624e-05 pd=4.054e-05 nrs=0.00675 nrd=0.00675 m=(1)*(10) \
        par1=((1)*(10)) xf_subext=0
M40 (net14 enb_3v 0 0) ne3 w=2u l=350.0n as=9.6e-13 ad=9.6e-13 ps=4.96e-06 \
        pd=4.96e-06 nrs=0.135 nrd=0.135 m=(1)*(1) par1=((1)*(1)) \
        xf_subext=0
M21 (net33 net33 net32 0) nedia_bjt w=15.0u l=1.25u m=(1)*(1) \
        par1=((1)*(1)) extlay=0 xf_subext=0
M16 (Bias2 vdd3 net075 0) nedia_bjt w=50u l=1.25u m=(1)*(5) par1=((1)*(5)) \
        extlay=0 xf_subext=0
M8 (net29 net29 VB 0) nedia_bjt w=W l=1.25u m=(1)*(1) par1=((1)*(1)) \
        extlay=0 xf_subext=0
M5 (net32 VB net74 0) nedia_bjt w=W l=1.25u m=(1)*(1) par1=((1)*(1)) \
        extlay=0 xf_subext=0
M0 (net58 VB net73 0) nedia_bjt w=W l=1.25u m=(1)*(10) par1=((1)*(10)) \
        extlay=0 xf_subext=0
M7 (VB net29 net28 0) nedia_bjt w=(W/3) l=1.25u m=(1)*(1) par1=((1)*(1)) \
        extlay=0 xf_subext=0
M6 (net28 net28 0 0) nedia_bjt w=W l=1.25u m=(1)*(1) par1=((1)*(1)) \
        extlay=0 xf_subext=0
M4 (net74 net32 0 0) nedia_bjt w=W l=1.25u m=(1)*(1) par1=((1)*(1)) \
        extlay=0 xf_subext=0
M3 (net73 net32 0 0) nedia_bjt w=W l=1.25u m=(1)*(10) par1=((1)*(10)) \
        extlay=0 xf_subext=0
I17 (EN_ST en_3v 0 vdd3! vdde!) LSHVT18U3VX1
I0 (MAG_ST\<0\> net57 0 vdd3! vdde!) LSHVT18U3VX1
I30 (MAG_ST\<1\> net72 0 vdd3! vdde!) LSHVT18U3VX1
I4 (MAG_ST\<2\> net71 0 vdd3! vdde!) LSHVT18U3VX1
I6 (MAG_ST\<3\> net70 0 vdd3! vdde!) LSHVT18U3VX1
I29 (MAG_ST\<4\> net75 0 vdd3! vdde!) LSHVT18U3VX1
M50 (net69 VBp1 vdd3 vdd3) pe3 w=10u l=1u as=4.8e-12 ad=4.8e-12 \
        ps=2.096e-05 pd=2.096e-05 nrs=0.027 nrd=0.027 m=(1)*(1) \
        par1=((1)*(1))
M41 (net60 VBp1 vdd3 vdd3) pe3 w=10u l=1u as=2.9625e-12 ad=2.7e-12 \
        ps=1.18425e-05 pd=1.054e-05 nrs=0.027 nrd=0.027 m=(1)*(16) \
        par1=((1)*(16))
M38 (net62 VBp1 vdd3 vdd3) pe3 w=10u l=1u as=3.225e-12 ad=2.7e-12 \
        ps=1.3145e-05 pd=1.054e-05 nrs=0.027 nrd=0.027 m=(1)*(8) \
        par1=((1)*(8))
M35 (net64 VBp1 vdd3 vdd3) pe3 w=10u l=1u as=3.75e-12 ad=2.7e-12 \
        ps=1.575e-05 pd=1.054e-05 nrs=0.027 nrd=0.027 m=(1)*(4) \
        par1=((1)*(4))
M32 (net66 VBp1 vdd3 vdd3) pe3 w=10u l=1u as=4.8e-12 ad=2.7e-12 \
        ps=2.096e-05 pd=1.054e-05 nrs=0.027 nrd=0.027 m=(1)*(2) \
        par1=((1)*(2))
M22 (net68 VBp1 vdd3 vdd3) pe3 w=10u l=1u as=4.8e-12 ad=4.8e-12 \
        ps=2.096e-05 pd=2.096e-05 nrs=0.027 nrd=0.027 m=(1)*(1) \
        par1=((1)*(1))
M48 (VBp1 VBp1 vdd3 vdd3) pe3 w=10u l=1u as=4.8e-12 ad=4.8e-12 \
        ps=2.096e-05 pd=2.096e-05 nrs=0.027 nrd=0.027 m=(1)*(1) \
        par1=((1)*(1))
M54 (net2 net2 vdd3 vdd3) pe3 w=6u l=5u as=2.88e-12 ad=2.88e-12 \
        ps=1.296e-05 pd=1.296e-05 nrs=0.045 nrd=0.045 m=(1)*(1) \
        par1=((1)*(1))
M51 (net37 VBp2 net69 vdd3) pe3 w=10u l=1u as=4.8e-12 ad=4.8e-12 \
        ps=2.096e-05 pd=2.096e-05 nrs=0.027 nrd=0.027 m=(1)*(1) \
        par1=((1)*(1))
M42 (net59 VBp2 net60 vdd3) pe3 w=10u l=1u as=2.9625e-12 ad=2.7e-12 \
        ps=1.18425e-05 pd=1.054e-05 nrs=0.027 nrd=0.027 m=(1)*(16) \
        par1=((1)*(16))
M39 (net61 VBp2 net62 vdd3) pe3 w=10u l=1u as=3.225e-12 ad=2.7e-12 \
        ps=1.3145e-05 pd=1.054e-05 nrs=0.027 nrd=0.027 m=(1)*(8) \
        par1=((1)*(8))
M36 (net63 VBp2 net64 vdd3) pe3 w=10u l=1u as=3.75e-12 ad=2.7e-12 \
        ps=1.575e-05 pd=1.054e-05 nrs=0.027 nrd=0.027 m=(1)*(4) \
        par1=((1)*(4))
M33 (net65 VBp2 net66 vdd3) pe3 w=10u l=1u as=4.8e-12 ad=2.7e-12 \
        ps=2.096e-05 pd=1.054e-05 nrs=0.027 nrd=0.027 m=(1)*(2) \
        par1=((1)*(2))
M29 (net67 VBp2 net68 vdd3) pe3 w=10u l=1u as=4.8e-12 ad=4.8e-12 \
        ps=2.096e-05 pd=2.096e-05 nrs=0.027 nrd=0.027 m=(1)*(1) \
        par1=((1)*(1))
M49 (VBp2 VBp2 VBp1 vdd3) pe3 w=10u l=1u as=4.8e-12 ad=4.8e-12 \
        ps=2.096e-05 pd=2.096e-05 nrs=0.027 nrd=0.027 m=(1)*(1) \
        par1=((1)*(1))
M44 (net14 D1_3v net65 vdd3) pe3 w=10u l=300n as=4.8e-12 ad=4.8e-12 \
        ps=2.096e-05 pd=2.096e-05 nrs=0.027 nrd=0.027 m=(1)*(1) \
        par1=((1)*(1))
M45 (net14 D2_3v net63 vdd3) pe3 w=10u l=300n as=4.8e-12 ad=4.8e-12 \
        ps=2.096e-05 pd=2.096e-05 nrs=0.027 nrd=0.027 m=(1)*(1) \
        par1=((1)*(1))
M46 (net14 D3_3v net61 vdd3) pe3 w=10u l=300n as=4.8e-12 ad=4.8e-12 \
        ps=2.096e-05 pd=2.096e-05 nrs=0.027 nrd=0.027 m=(1)*(1) \
        par1=((1)*(1))
M47 (net14 D4_3v net59 vdd3) pe3 w=10u l=300n as=4.8e-12 ad=4.8e-12 \
        ps=2.096e-05 pd=2.096e-05 nrs=0.027 nrd=0.027 m=(1)*(1) \
        par1=((1)*(1))
M31 (net14 D0_3v net67 vdd3) pe3 w=10u l=300n as=4.8e-12 ad=4.8e-12 \
        ps=2.096e-05 pd=2.096e-05 nrs=0.027 nrd=0.027 m=(1)*(1) \
        par1=((1)*(1))
M52 (net075 en_3v vdd3 vdd3) pe3 w=2u l=300n as=9.6e-13 ad=9.6e-13 \
        ps=4.96e-06 pd=4.96e-06 nrs=0.135 nrd=0.135 m=(1)*(1) \
        par1=((1)*(1))
R1 (net8 0) rpp1k1 l=150.295u w=2u m=1 par1=(1)
R0 (vddh net58) resistor r=1.1k
M11 (net55 Bias1 vddh 0) ped_bjt w=Wp l=940.0n m=(1)*(1) par1=((1)*(1)) \
        extlay=0 xf_subext=0
M1 (net56 Bias1 vddh 0) ped_bjt w=Wp l=940.0n m=(1)*(1) par1=((1)*(1)) \
        extlay=0 xf_subext=0
M2 (Bias1 Bias1 vddh 0) ped_bjt w=Wp l=940.0n m=(1)*(1) par1=((1)*(1)) \
        extlay=0 xf_subext=0
M12 (net33 Bias2 net55 0) ped_bjt w=Wp l=940.0n m=(1)*(1) par1=((1)*(1)) \
        extlay=0 xf_subext=0
M10 (net29 Bias2 net56 0) ped_bjt w=Wp l=940.0n m=(1)*(1) par1=((1)*(1)) \
        extlay=0 xf_subext=0
M9 (Bias2 Bias2 Bias1 0) ped_bjt w=Wp l=940.0n m=(1)*(1) par1=((1)*(1)) \
        extlay=0 xf_subext=0
V9 (EN_ST 0) vsource dc=1.8 type=dc
V8 (MAG_ST\<4\> 0) vsource dc=0 type=dc
V7 (MAG_ST\<3\> 0) vsource dc=0 type=dc
V6 (MAG_ST\<2\> 0) vsource dc=0 type=dc
V5 (MAG_ST\<1\> 0) vsource dc=0 type=dc
V2 (MAG_ST\<0\> 0) vsource dc=1.8 type=dc
V4 (vdde! 0) vsource dc=1.8 type=dc
V3 (vdd3! 0) vsource dc=3.3 type=dc
V1 (vdd3 0) vsource dc=3.3 type=dc
V0 (vddh 0) vsource dc=40 type=dc
simulatorOptions options psfversion="1.1.0" reltol=100e-6 vabstol=1e-6 \
    iabstol=1e-12 temp=27 tnom=27 homotopy=all limit=delta scalem=1.0 \
    scale=1.0 compatible=spice2 gmin=1e-12 rforce=1 maxnotes=5 maxwarns=5 \
    digits=5 cols=80 pivrel=1e-3 sensfile="../psf/sens.output" \
    checklimitdest=psf 
dcOp dc write="spectre.dc" maxiters=150 maxsteps=10000 annotate=status
dcOpInfo info what=oppoint where=rawfile
modelParameter info what=models where=rawfile
element info what=inst where=rawfile
outputParameter info what=output where=rawfile
designParamVals info what=parameters where=rawfile
primitives info what=primitives where=rawfile
subckts info what=subckts where=rawfile
saveOptions options save=allpub
