// Generated for: spectre
// Generated on: Mar 23 16:07:39 2021
// Design library name: Stimulator_TestBench
// Design cell name: TB_CurrentMirror_DC
// Design view name: schematic
simulator lang=spectre
global 0 vdde! vdd3!
