// Generated for: spectre
// Generated on: Mar 22 15:02:23 2021
// Design library name: Stimulator_TestBench
// Design cell name: TB_CurrentMirror
// Design view name: config
simulator lang=spectre binding=vlog  
global 0 vdde! vdd3!
