simulator lang=spectre
include "ne3.scs"
include "nmma_bjt.scs"
include "pe3.scs"
include "pmma_bjt.scs"
