// Generated for: spectre
// Generated on: Mar  5 13:47:26 2021
// Design library name: Stimulator_TestBench
// Design cell name: TB_LS_LowSide
// Design view name: schematic
simulator lang=spectre
global 0
