simulator lang=spectre
include "nhv.scs"
