// Generated for: spectre
// Generated on: Feb 22 15:43:22 2021
// Design library name: Stimulator_TestBench
// Design cell name: TB_Current_Source
// Design view name: config
simulator lang=spectre binding=vlog  
global 0
