// Generated for: spectre
// Generated on: Jan  6 23:16:39 2021
// Design library name: Stimulator_TestBench
// Design cell name: TB_Current_Source
// Design view name: config
simulator lang=spectre binding=vlog  
global 0
