// Generated for: spectre
// Generated on: Apr 23 14:43:30 2021
// Design library name: Stimulator_TestBench
// Design cell name: TB_CurrentMirror_DC_imp
// Design view name: schematic
simulator lang=spectre
global 0 vdde! vdd3!
