// Generated for: spectre
// Generated on: Mar 31 11:13:10 2021
// Design library name: Stimulator_TestBench
// Design cell name: TB_CurrentMirror_DC_imp
// Design view name: schematic
simulator lang=spectre
global 0 vdde! vdd3!
