// Generated for: spectre
// Generated on: Sep 28 16:33:58 2020
// Design library name: EMG_202009
// Design cell name: TB_HDEMG_AFE_16
// Design view name: config
simulator lang=spectre binding=vlog  
global 0
