// Generated for: spectre
// Generated on: Mar 19 16:32:36 2021
// Design library name: Stimulator_TestBench
// Design cell name: TB_CurrentMirror
// Design view name: schematic
simulator lang=spectre
global 0 vdde! vdd3!
