// Generated for: spectre
// Generated on: Apr 14 21:39:06 2021
// Design library name: IL2239_SAR_ADC
// Design cell name: SAR4_sim
// Design view name: config
simulator lang=spectre binding=vlog  
global 0
