// Generated for: spectre
// Generated on: Feb 15 15:07:53 2021
// Design library name: EMG_TestBench
// Design cell name: TB_Digital_Stimulus_V2
// Design view name: config
simulator lang=spectre binding=vlog  
global 0
