// Generated for: spectre
// Generated on: Apr  7 14:07:55 2021
// Design library name: Stimulator_TestBench
// Design cell name: TB_OneCH_Top
// Design view name: config
simulator lang=spectre binding=vlog  
global 0 vdd3! vdde! vdd!
