// Generated for: spectre
// Generated on: Oct 13 23:48:25 2020
// Design library name: EMG_202009
// Design cell name: TB_BPF
// Design view name: config
simulator lang=spectre binding=vlog  
global 0
