// Generated for: spectre
// Generated on: Apr  5 15:03:20 2021
// Design library name: Stimulator_TestBench
// Design cell name: TB_OneCH_Top
// Design view name: config
simulator lang=spectre binding=vlog  
global 0 vdd3! vdde! vdd!
