
// This is the Cadence AMS Designer(R) analog simulation control file. 
// It specifies the options and analyses for the Spectre analog solver. 

simulator lang=spectre 

global 0 vdd3! vdde! vdd!

simulatorOptions options temp=27 tnom=27 scale=1.0 scalem=1.0 \
reltol=100e-6 vabstol=1e-6 iabstol=1e-12 homotopy=all limit=delta \
gmin=1e-12 rforce=1 maxnotes=5 maxwarns=5 digits=5 pivrel=1e-3 \
checklimitdest=psf 
