// Generated for: spectre
// Generated on: Nov 16 22:42:53 2020
// Design library name: EMG_TestBench
// Design cell name: TB_AFE_MEG
// Design view name: config
simulator lang=spectre binding=vlog  
global 0
