// Generated for: spectre
// Generated on: Nov 16 22:57:40 2020
// Design library name: EMG_TestBench
// Design cell name: TB_SingleChannel
// Design view name: config
simulator lang=spectre binding=vlog  
global 0
