simulator lang=spectre
include "nhv_bjt.scs"
