// Generated for: spectre
// Generated on: Feb 27 16:07:33 2021
// Design library name: Device_Characteristics
// Design cell name: DC_BIAS_nhv
// Design view name: schematic
simulator lang=spectre
global 0
