// Generated for: spectre
// Generated on: Feb 15 22:30:37 2021
// Design library name: Stimulator_TestBench
// Design cell name: TB_Digital_Stimulus
// Design view name: config
simulator lang=spectre binding=vlog  
global 0
