simulator lang=spectre
include "ne3.scs"
include "nedia.scs"
include "nedia_bjt.scs"
include "pe3.scs"
include "ped_bjt.scs"
