// Generated for: spectre
// Generated on: Mar  2 13:58:02 2021
// Design library name: Device_Characteristics
// Design cell name: Test_nedia
// Design view name: schematic
simulator lang=spectre
global 0 vdd!
