// Generated for: spectre
// Generated on: Feb 23 19:46:29 2021
// Design library name: EMG_TestBench
// Design cell name: TB_Digital_Stimulus_all
// Design view name: config
simulator lang=spectre binding=vlog  
global 0
