// Generated for: spectre
// Generated on: Feb 15 23:10:57 2021
// Design library name: EMG_TestBench
// Design cell name: TB_Digital_Stimulus_all
// Design view name: config
simulator lang=spectre binding=vlog  
global 0
