// Generated for: spectre
// Generated on: Sep 24 11:54:07 2020
// Design library name: EMG_202009
// Design cell name: TB_ADC
// Design view name: config
simulator lang=spectre binding=vlog  
global 0
