// Generated for: spectre
// Generated on: Sep 23 14:09:41 2020
// Design library name: EMG_202009
// Design cell name: TB_Mux4
// Design view name: config
simulator lang=spectre binding=vlog  
global 0
