// Generated for: spectre
// Generated on: Feb 19 18:22:47 2021
// Design library name: EMG_TestBench
// Design cell name: TB_MultiChannel
// Design view name: config
simulator lang=spectre binding=vlog  
global 0
