// Generated for: spectre
// Generated on: Feb 10 14:07:07 2021
// Design library name: EMG_TestBench
// Design cell name: TB_MultiChannel
// Design view name: config
simulator lang=spectre binding=vlog  
global 0
