// Generated for: spectre
// Generated on: Nov 18 23:54:48 2020
// Design library name: EMG_TestBench
// Design cell name: TB_MultiChannel
// Design view name: config
simulator lang=spectre binding=vlog  
global 0
