simulator lang=spectre
include "ped.scs"
