// Generated for: spectre
// Generated on: Mar  1 10:31:19 2021
// Design library name: Device_Characteristics
// Design cell name: DC_BIAS_ped
// Design view name: schematic
simulator lang=spectre
global 0 vdd!
