// Generated for: spectre
// Generated on: Jan 19 23:48:42 2021
// Design library name: Stimulator_TestBench
// Design cell name: TB_Single_CH
// Design view name: config
simulator lang=spectre binding=vlog  
global 0
