// Generated for: spectre
// Generated on: Jan 21 14:03:06 2021
// Design library name: Stimulator_TestBench
// Design cell name: TB_Single_CH
// Design view name: config
simulator lang=spectre binding=vlog  
global 0
