// Generated for: spectre
// Generated on: Feb 11 16:11:29 2021
// Design library name: Stimulator_TestBench
// Design cell name: TB_Single_CH
// Design view name: config
simulator lang=spectre binding=vlog  
global 0
