simulator lang=spectre
include "nedia.scs"
