// Generated for: spectre
// Generated on: Feb 27 16:13:05 2021
// Design library name: Device_Characteristics
// Design cell name: DC_BIAS_nedia
// Design view name: schematic
simulator lang=spectre
global 0
