// Generated for: spectre
// Generated on: Feb 15 22:14:51 2021
// Design library name: Stimulator_TestBench
// Design cell name: Digital_Stimulus_TB
// Design view name: config
simulator lang=spectre binding=vlog  
global 0
