// Generated for: spectre
// Generated on: Mar 15 15:50:50 2021
// Design library name: Stimulator_TestBench
// Design cell name: TB_HBridge_V2
// Design view name: config
simulator lang=spectre binding=vlog  
global 0 vdde! vdd3!
