** Schematic Netlist, pvs precompare
** 

.subckt LDDN D G S B 
.ends


.subckt LDDP D G S B 
.ends


.subckt CurrentSource_All_ST Enable_ST Iext Ist Mag0_ST Mag1_ST Mag2_ST Mag3_ST Mag4_ST gnd! vdd3! vddh vdde! vdd! 
RXI0/RR0 Iext XI0/VG2 RPP1K1 W=2e-06 L=2.0095e-05 m=1 R=10001.1 
MXI0/MM2 XI0/VG1 XI0/VG1 gnd! gnd! NE3 W=8e-06 L=2e-06 m=1 
MXI0/MM2==2 XI0/VG1 XI0/VG1 gnd! gnd! NE3 W=8e-06 L=2e-06 m=1 
MXI0/MM2==3 XI0/VG1 XI0/VG1 gnd! gnd! NE3 W=8e-06 L=2e-06 m=1 
MXI0/MM2==4 XI0/VG1 XI0/VG1 gnd! gnd! NE3 W=8e-06 L=2e-06 m=1 
MXI0/MM2==5 XI0/VG1 XI0/VG1 gnd! gnd! NE3 W=8e-06 L=2e-06 m=1 
MXI0/MM0 XI0/VG2 XI0/VG2 XI0/VG1 gnd! NE3 W=8e-06 L=2e-06 m=1 
MXI0/MM0==2 XI0/VG2 XI0/VG2 XI0/VG1 gnd! NE3 W=8e-06 L=2e-06 m=1 
MXI0/MM0==3 XI0/VG2 XI0/VG2 XI0/VG1 gnd! NE3 W=8e-06 L=2e-06 m=1 
MXI0/MM0==4 XI0/VG2 XI0/VG2 XI0/VG1 gnd! NE3 W=8e-06 L=2e-06 m=1 
MXI0/MM0==5 XI0/VG2 XI0/VG2 XI0/VG1 gnd! NE3 W=8e-06 L=2e-06 m=1 
MXI0/MM3 XI0/VD_M1 XI0/VG1 gnd! gnd! NE3 W=8e-06 L=2e-06 m=1 
MXI0/MM3==2 XI0/VD_M1 XI0/VG1 gnd! gnd! NE3 W=8e-06 L=2e-06 m=1 
MXI0/MM3==3 XI0/VD_M1 XI0/VG1 gnd! gnd! NE3 W=8e-06 L=2e-06 m=1 
MXI0/MM3==4 XI0/VD_M1 XI0/VG1 gnd! gnd! NE3 W=8e-06 L=2e-06 m=1 
MXI0/MM3==5 XI0/VD_M1 XI0/VG1 gnd! gnd! NE3 W=8e-06 L=2e-06 m=1 
MXI0/MM1 Iref XI0/VG2 XI0/VD_M1 gnd! NE3 W=8e-06 L=2e-06 m=1 
MXI0/MM1==2 Iref XI0/VG2 XI0/VD_M1 gnd! NE3 W=8e-06 L=2e-06 m=1 
MXI0/MM1==3 Iref XI0/VG2 XI0/VD_M1 gnd! NE3 W=8e-06 L=2e-06 m=1 
MXI0/MM1==4 Iref XI0/VG2 XI0/VD_M1 gnd! NE3 W=8e-06 L=2e-06 m=1 
MXI0/MM1==5 Iref XI0/VG2 XI0/VD_M1 gnd! NE3 W=8e-06 L=2e-06 m=1 
MXI0/MM14 gnd! gnd! gnd! gnd! NE3 W=8e-06 L=2e-06 m=1 
MXI0/MM14==2 gnd! gnd! gnd! gnd! NE3 W=8e-06 L=2e-06 m=1 
MXI0/MM14==3 gnd! gnd! gnd! gnd! NE3 W=8e-06 L=2e-06 m=1 
MXI0/MM14==4 gnd! gnd! gnd! gnd! NE3 W=8e-06 L=2e-06 m=1 
MXI45/Xnand2_1/MMN1 XI45/net10 Enable_ST XI45/Xnand2_1/net11 gnd! NE W=4.2e-07 L=1.8e-07 m=1 
MXI45/Xnand2_1/MMN2 XI45/Xnand2_1/net11 Mag0_ST gnd! gnd! NE W=4.2e-07 L=1.8e-07 m=1 
MXI45/Xnand2_1/MMP1 XI45/net10 Enable_ST vdd! vdd! PE W=7.2e-07 L=1.8e-07 m=1 
MXI45/Xnand2_1/MMP2 XI45/net10 Mag0_ST vdd! vdd! PE W=7.2e-07 L=1.8e-07 m=1 
MXI45/Xinvr_1/Mne net05 XI45/net10 gnd! gnd! NE W=4.2e-07 L=1.8e-07 m=1 
MXI45/Xinvr_1/Mpe net05 XI45/net10 vdd! vdd! PE W=7.2e-07 L=1.8e-07 m=1 
MXI46/Xnand2_1/MMN1 XI46/net10 Enable_ST XI46/Xnand2_1/net11 gnd! NE W=4.2e-07 L=1.8e-07 m=1 
MXI46/Xnand2_1/MMN2 XI46/Xnand2_1/net11 Mag1_ST gnd! gnd! NE W=4.2e-07 L=1.8e-07 m=1 
MXI46/Xnand2_1/MMP1 XI46/net10 Enable_ST vdd! vdd! PE W=7.2e-07 L=1.8e-07 m=1 
MXI46/Xnand2_1/MMP2 XI46/net10 Mag1_ST vdd! vdd! PE W=7.2e-07 L=1.8e-07 m=1 
MXI46/Xinvr_1/Mne net07 XI46/net10 gnd! gnd! NE W=4.2e-07 L=1.8e-07 m=1 
MXI46/Xinvr_1/Mpe net07 XI46/net10 vdd! vdd! PE W=7.2e-07 L=1.8e-07 m=1 
MXI47/Xnand2_1/MMN1 XI47/net10 Enable_ST XI47/Xnand2_1/net11 gnd! NE W=4.2e-07 L=1.8e-07 m=1 
MXI47/Xnand2_1/MMN2 XI47/Xnand2_1/net11 Mag2_ST gnd! gnd! NE W=4.2e-07 L=1.8e-07 m=1 
MXI47/Xnand2_1/MMP1 XI47/net10 Enable_ST vdd! vdd! PE W=7.2e-07 L=1.8e-07 m=1 
MXI47/Xnand2_1/MMP2 XI47/net10 Mag2_ST vdd! vdd! PE W=7.2e-07 L=1.8e-07 m=1 
MXI47/Xinvr_1/Mne net09 XI47/net10 gnd! gnd! NE W=4.2e-07 L=1.8e-07 m=1 
MXI47/Xinvr_1/Mpe net09 XI47/net10 vdd! vdd! PE W=7.2e-07 L=1.8e-07 m=1 
MXI48/Xnand2_1/MMN1 XI48/net10 Enable_ST XI48/Xnand2_1/net11 gnd! NE W=4.2e-07 L=1.8e-07 m=1 
MXI48/Xnand2_1/MMN2 XI48/Xnand2_1/net11 Mag3_ST gnd! gnd! NE W=4.2e-07 L=1.8e-07 m=1 
MXI48/Xnand2_1/MMP1 XI48/net10 Enable_ST vdd! vdd! PE W=7.2e-07 L=1.8e-07 m=1 
MXI48/Xnand2_1/MMP2 XI48/net10 Mag3_ST vdd! vdd! PE W=7.2e-07 L=1.8e-07 m=1 
MXI48/Xinvr_1/Mne net011 XI48/net10 gnd! gnd! NE W=4.2e-07 L=1.8e-07 m=1 
MXI48/Xinvr_1/Mpe net011 XI48/net10 vdd! vdd! PE W=7.2e-07 L=1.8e-07 m=1 
MXI49/Xnand2_1/MMN1 XI49/net10 Enable_ST XI49/Xnand2_1/net11 gnd! NE W=4.2e-07 L=1.8e-07 m=1 
MXI49/Xnand2_1/MMN2 XI49/Xnand2_1/net11 Mag4_ST gnd! gnd! NE W=4.2e-07 L=1.8e-07 m=1 
MXI49/Xnand2_1/MMP1 XI49/net10 Enable_ST vdd! vdd! PE W=7.2e-07 L=1.8e-07 m=1 
MXI49/Xnand2_1/MMP2 XI49/net10 Mag4_ST vdd! vdd! PE W=7.2e-07 L=1.8e-07 m=1 
MXI49/Xinvr_1/Mne net013 XI49/net10 gnd! gnd! NE W=4.2e-07 L=1.8e-07 m=1 
MXI49/Xinvr_1/Mpe net013 XI49/net10 vdd! vdd! PE W=7.2e-07 L=1.8e-07 m=1 
RXI2/RR3 XI2/net030 gnd! RPP1K1 W=2e-06 L=0.00011122 m=1 R=54862.6 
RXI2/RR2 vdd3! gnd! RPP1K1 W=2e-06 L=0.00036998 m=1 R=182252 
RXI2/RR0 XI2/en_3v XI2/net030 RPP1K1 W=2e-06 L=0.00011122 m=1 R=54862.6 
MXI2/XI17/MM3 XI2/XI17/net20 Enable_ST gnd! gnd! NE3 W=1.31e-06 L=3.5e-07 m=1 
MXI2/XI17/MM5 XI2/en_3v XI2/XI17/net20 gnd! gnd! NE3 W=1.78e-06 L=3.5e-07 m=1 
MXI2/XI17/MM7 XI2/XI17/net4 Enable_ST gnd! gnd! NE3 W=4.2e-07 L=3.5e-07 m=1 
MXI2/XI17/MM1 XI2/XI17/net10 XI2/XI17/net4 gnd! gnd! NE3 W=1.31e-06 L=3.5e-07 m=1 
MXI2/XI17/MM6 XI2/en_3v XI2/XI17/net20 vdd3! vdd3! PE3 W=2.82e-06 L=3e-07 m=1 
MXI2/XI17/MM8 XI2/XI17/net4 Enable_ST vdde! vdd3! PE3 W=1.47e-06 L=3e-07 m=1 
MXI2/XI17/MM9 XI2/XI17/net20 Enable_ST XI2/XI17/net024 vdd3! PE3 W=4.2e-07 L=3e-07 m=1 
MXI2/XI17/MM0 XI2/XI17/net10 XI2/XI17/net4 XI2/XI17/net023 vdd3! PE3 W=4.2e-07 L=3e-07 m=1 
MXI2/XI17/MM2 XI2/XI17/net023 XI2/XI17/net20 vdd3! vdd3! PE3 W=4.2e-07 L=3e-07 m=1 
MXI2/XI17/MM4 XI2/XI17/net024 XI2/XI17/net10 vdd3! vdd3! PE3 W=4.2e-07 L=3e-07 m=1 
MXI2/XI0/MM26 net9 net9 gnd! gnd! NE3 W=1.2e-05 L=3e-06 m=1 
MXI2/XI0/MM26==2 net9 net9 gnd! gnd! NE3 W=1.2e-05 L=3e-06 m=1 
MXI2/XI0/MM26==3 net9 net9 gnd! gnd! NE3 W=1.2e-05 L=3e-06 m=1 
MXI2/XI0/MM26==4 net9 net9 gnd! gnd! NE3 W=1.2e-05 L=3e-06 m=1 
MXI2/XI0/MM26==5 net9 net9 gnd! gnd! NE3 W=1.2e-05 L=3e-06 m=1 
MXI2/XI0/MM26==6 net9 net9 gnd! gnd! NE3 W=1.2e-05 L=3e-06 m=1 
MXI2/XI0/MM13 XI2/Iout_LV net9 gnd! gnd! NE3 W=1.2e-05 L=3e-06 m=1 
MXI2/XI0/MM13==2 XI2/Iout_LV net9 gnd! gnd! NE3 W=1.2e-05 L=3e-06 m=1 
MXI2/XI0/MM13==3 XI2/Iout_LV net9 gnd! gnd! NE3 W=1.2e-05 L=3e-06 m=1 
MXI2/XI0/MM13==4 XI2/Iout_LV net9 gnd! gnd! NE3 W=1.2e-05 L=3e-06 m=1 
MXI2/XI0/MM13==5 XI2/Iout_LV net9 gnd! gnd! NE3 W=1.2e-05 L=3e-06 m=1 
MXI2/XI0/MM13==6 XI2/Iout_LV net9 gnd! gnd! NE3 W=1.2e-05 L=3e-06 m=1 
MXI2/XI0/MM13==7 XI2/Iout_LV net9 gnd! gnd! NE3 W=1.2e-05 L=3e-06 m=1 
MXI2/XI0/MM13==8 XI2/Iout_LV net9 gnd! gnd! NE3 W=1.2e-05 L=3e-06 m=1 
MXI2/XI0/MM13==9 XI2/Iout_LV net9 gnd! gnd! NE3 W=1.2e-05 L=3e-06 m=1 
MXI2/XI0/MM13==10 XI2/Iout_LV net9 gnd! gnd! NE3 W=1.2e-05 L=3e-06 m=1 
MXI2/XI0/MM13==11 XI2/Iout_LV net9 gnd! gnd! NE3 W=1.2e-05 L=3e-06 m=1 
MXI2/XI0/MM13==12 XI2/Iout_LV net9 gnd! gnd! NE3 W=1.2e-05 L=3e-06 m=1 
MXI2/XI0/MM13==13 XI2/Iout_LV net9 gnd! gnd! NE3 W=1.2e-05 L=3e-06 m=1 
MXI2/XI0/MM13==14 XI2/Iout_LV net9 gnd! gnd! NE3 W=1.2e-05 L=3e-06 m=1 
MXI2/XI0/MM13==15 XI2/Iout_LV net9 gnd! gnd! NE3 W=1.2e-05 L=3e-06 m=1 
MXI2/XI0/MM13==16 XI2/Iout_LV net9 gnd! gnd! NE3 W=1.2e-05 L=3e-06 m=1 
MXI2/XI0/MM13==17 XI2/Iout_LV net9 gnd! gnd! NE3 W=1.2e-05 L=3e-06 m=1 
MXI2/XI0/MM13==18 XI2/Iout_LV net9 gnd! gnd! NE3 W=1.2e-05 L=3e-06 m=1 
MXI2/XI0/MM13==19 XI2/Iout_LV net9 gnd! gnd! NE3 W=1.2e-05 L=3e-06 m=1 
MXI2/XI0/MM13==20 XI2/Iout_LV net9 gnd! gnd! NE3 W=1.2e-05 L=3e-06 m=1 
MXI2/XI0/MM13==21 XI2/Iout_LV net9 gnd! gnd! NE3 W=1.2e-05 L=3e-06 m=1 
MXI2/XI0/MM13==22 XI2/Iout_LV net9 gnd! gnd! NE3 W=1.2e-05 L=3e-06 m=1 
MXI2/XI0/MM13==23 XI2/Iout_LV net9 gnd! gnd! NE3 W=1.2e-05 L=3e-06 m=1 
MXI2/XI0/MM13==24 XI2/Iout_LV net9 gnd! gnd! NE3 W=1.2e-05 L=3e-06 m=1 
MXI2/XI0/MM13==25 XI2/Iout_LV net9 gnd! gnd! NE3 W=1.2e-05 L=3e-06 m=1 
MXI2/XI0/MM13==26 XI2/Iout_LV net9 gnd! gnd! NE3 W=1.2e-05 L=3e-06 m=1 
MXI2/XI0/MM13==27 XI2/Iout_LV net9 gnd! gnd! NE3 W=1.2e-05 L=3e-06 m=1 
MXI2/XI0/MM13==28 XI2/Iout_LV net9 gnd! gnd! NE3 W=1.2e-05 L=3e-06 m=1 
MXI2/XI0/MM13==29 XI2/Iout_LV net9 gnd! gnd! NE3 W=1.2e-05 L=3e-06 m=1 
MXI2/XI0/MM13==30 XI2/Iout_LV net9 gnd! gnd! NE3 W=1.2e-05 L=3e-06 m=1 
MXI2/XI0/MM13==31 XI2/Iout_LV net9 gnd! gnd! NE3 W=1.2e-05 L=3e-06 m=1 
MXI2/XI0/MM13==32 XI2/Iout_LV net9 gnd! gnd! NE3 W=1.2e-05 L=3e-06 m=1 
MXI2/XI0/MM13==33 XI2/Iout_LV net9 gnd! gnd! NE3 W=1.2e-05 L=3e-06 m=1 
MXI2/XI0/MM13==34 XI2/Iout_LV net9 gnd! gnd! NE3 W=1.2e-05 L=3e-06 m=1 
MXI2/XI0/MM13==35 XI2/Iout_LV net9 gnd! gnd! NE3 W=1.2e-05 L=3e-06 m=1 
MXI2/XI0/MM13==36 XI2/Iout_LV net9 gnd! gnd! NE3 W=1.2e-05 L=3e-06 m=1 
MXI2/XI0/MM13==37 XI2/Iout_LV net9 gnd! gnd! NE3 W=1.2e-05 L=3e-06 m=1 
MXI2/XI0/MM13==38 XI2/Iout_LV net9 gnd! gnd! NE3 W=1.2e-05 L=3e-06 m=1 
MXI2/XI0/MM13==39 XI2/Iout_LV net9 gnd! gnd! NE3 W=1.2e-05 L=3e-06 m=1 
MXI2/XI0/MM13==40 XI2/Iout_LV net9 gnd! gnd! NE3 W=1.2e-05 L=3e-06 m=1 
MXI2/XI0/MM13==41 XI2/Iout_LV net9 gnd! gnd! NE3 W=1.2e-05 L=3e-06 m=1 
MXI2/XI0/MM13==42 XI2/Iout_LV net9 gnd! gnd! NE3 W=1.2e-05 L=3e-06 m=1 
MXI2/XI0/MM13==43 XI2/Iout_LV net9 gnd! gnd! NE3 W=1.2e-05 L=3e-06 m=1 
MXI2/XI0/MM13==44 XI2/Iout_LV net9 gnd! gnd! NE3 W=1.2e-05 L=3e-06 m=1 
MXI2/XI0/MM13==45 XI2/Iout_LV net9 gnd! gnd! NE3 W=1.2e-05 L=3e-06 m=1 
MXI2/XI0/MM13==46 XI2/Iout_LV net9 gnd! gnd! NE3 W=1.2e-05 L=3e-06 m=1 
MXI2/XI0/MM13==47 XI2/Iout_LV net9 gnd! gnd! NE3 W=1.2e-05 L=3e-06 m=1 
MXI2/XI0/MM13==48 XI2/Iout_LV net9 gnd! gnd! NE3 W=1.2e-05 L=3e-06 m=1 
MXI2/XI0/MM13==49 XI2/Iout_LV net9 gnd! gnd! NE3 W=1.2e-05 L=3e-06 m=1 
MXI2/XI0/MM13==50 XI2/Iout_LV net9 gnd! gnd! NE3 W=1.2e-05 L=3e-06 m=1 
MXI2/XI0/MM13==51 XI2/Iout_LV net9 gnd! gnd! NE3 W=1.2e-05 L=3e-06 m=1 
MXI2/XI0/MM13==52 XI2/Iout_LV net9 gnd! gnd! NE3 W=1.2e-05 L=3e-06 m=1 
MXI2/XI0/MM13==53 XI2/Iout_LV net9 gnd! gnd! NE3 W=1.2e-05 L=3e-06 m=1 
MXI2/XI0/MM13==54 XI2/Iout_LV net9 gnd! gnd! NE3 W=1.2e-05 L=3e-06 m=1 
MXI2/XI0/MM13==55 XI2/Iout_LV net9 gnd! gnd! NE3 W=1.2e-05 L=3e-06 m=1 
MXI2/XI0/MM13==56 XI2/Iout_LV net9 gnd! gnd! NE3 W=1.2e-05 L=3e-06 m=1 
MXI2/XI0/MM13==57 XI2/Iout_LV net9 gnd! gnd! NE3 W=1.2e-05 L=3e-06 m=1 
MXI2/XI0/MM13==58 XI2/Iout_LV net9 gnd! gnd! NE3 W=1.2e-05 L=3e-06 m=1 
MXI2/XI0/MM13==59 XI2/Iout_LV net9 gnd! gnd! NE3 W=1.2e-05 L=3e-06 m=1 
MXI2/XI0/MM13==60 XI2/Iout_LV net9 gnd! gnd! NE3 W=1.2e-05 L=3e-06 m=1 
CXI2/CC5 vddh XI2/Vmid CSFT5A area=6.3936e-11 perimeter=3.372e-05 m=1 
CXI2/CC5==2 vddh XI2/Vmid CSFT5A area=6.3936e-11 perimeter=3.372e-05 m=1 
CXI2/CC5==3 vddh XI2/Vmid CSFT5A area=6.3936e-11 perimeter=3.372e-05 m=1 
CXI2/CC5==4 vddh XI2/Vmid CSFT5A area=6.3936e-11 perimeter=3.372e-05 m=1 
CXI2/CC5==5 vddh XI2/Vmid CSFT5A area=6.3936e-11 perimeter=3.372e-05 m=1 
CXI2/CC5==6 vddh XI2/Vmid CSFT5A area=6.3936e-11 perimeter=3.372e-05 m=1 
CXI2/CC5==7 vddh XI2/Vmid CSFT5A area=6.3936e-11 perimeter=3.372e-05 m=1 
CXI2/CC5==8 vddh XI2/Vmid CSFT5A area=6.3936e-11 perimeter=3.372e-05 m=1 
CXI2/CC5==9 vddh XI2/Vmid CSFT5A area=6.3936e-11 perimeter=3.372e-05 m=1 
CXI2/CC5==10 vddh XI2/Vmid CSFT5A area=6.3936e-11 perimeter=3.372e-05 m=1 
CXI2/CC5==11 vddh XI2/Vmid CSFT5A area=6.3936e-11 perimeter=3.372e-05 m=1 
CXI2/CC5==12 vddh XI2/Vmid CSFT5A area=6.3936e-11 perimeter=3.372e-05 m=1 
CXI2/CC5==13 vddh XI2/Vmid CSFT5A area=6.3936e-11 perimeter=3.372e-05 m=1 
CXI2/CC5==14 vddh XI2/Vmid CSFT5A area=6.3936e-11 perimeter=3.372e-05 m=1 
CXI2/CC5==15 vddh XI2/Vmid CSFT5A area=6.3936e-11 perimeter=3.372e-05 m=1 
CXI2/CC1 XI2/Vmid gnd! CSFT5A area=6.3936e-11 perimeter=3.372e-05 m=1 
CXI2/CC1==2 XI2/Vmid gnd! CSFT5A area=6.3936e-11 perimeter=3.372e-05 m=1 
CXI2/CC1==3 XI2/Vmid gnd! CSFT5A area=6.3936e-11 perimeter=3.372e-05 m=1 
CXI2/CC1==4 XI2/Vmid gnd! CSFT5A area=6.3936e-11 perimeter=3.372e-05 m=1 
CXI2/CC1==5 XI2/Vmid gnd! CSFT5A area=6.3936e-11 perimeter=3.372e-05 m=1 
CXI2/CC1==6 XI2/Vmid gnd! CSFT5A area=6.3936e-11 perimeter=3.372e-05 m=1 
CXI2/CC1==7 XI2/Vmid gnd! CSFT5A area=6.3936e-11 perimeter=3.372e-05 m=1 
CXI2/CC1==8 XI2/Vmid gnd! CSFT5A area=6.3936e-11 perimeter=3.372e-05 m=1 
CXI2/CC1==9 XI2/Vmid gnd! CSFT5A area=6.3936e-11 perimeter=3.372e-05 m=1 
CXI2/CC1==10 XI2/Vmid gnd! CSFT5A area=6.3936e-11 perimeter=3.372e-05 m=1 
CXI2/CC1==11 XI2/Vmid gnd! CSFT5A area=6.3936e-11 perimeter=3.372e-05 m=1 
CXI2/CC1==12 XI2/Vmid gnd! CSFT5A area=6.3936e-11 perimeter=3.372e-05 m=1 
CXI2/CC1==13 XI2/Vmid gnd! CSFT5A area=6.3936e-11 perimeter=3.372e-05 m=1 
CXI2/CC1==14 XI2/Vmid gnd! CSFT5A area=6.3936e-11 perimeter=3.372e-05 m=1 
CXI2/CC1==15 XI2/Vmid gnd! CSFT5A area=6.3936e-11 perimeter=3.372e-05 m=1 
CXI2/CC1==16 XI2/Vmid gnd! CSFT5A area=6.3936e-11 perimeter=3.372e-05 m=1 
CXI2/CC1==17 XI2/Vmid gnd! CSFT5A area=6.3936e-11 perimeter=3.372e-05 m=1 
CXI2/CC1==18 XI2/Vmid gnd! CSFT5A area=6.3936e-11 perimeter=3.372e-05 m=1 
CXI2/CC1==19 XI2/Vmid gnd! CSFT5A area=6.3936e-11 perimeter=3.372e-05 m=1 
CXI2/CC1==20 XI2/Vmid gnd! CSFT5A area=6.3936e-11 perimeter=3.372e-05 m=1 
CXI2/CC1==21 XI2/Vmid gnd! CSFT5A area=6.3936e-11 perimeter=3.372e-05 m=1 
CXI2/CC1==22 XI2/Vmid gnd! CSFT5A area=6.3936e-11 perimeter=3.372e-05 m=1 
CXI2/CC1==23 XI2/Vmid gnd! CSFT5A area=6.3936e-11 perimeter=3.372e-05 m=1 
CXI2/CC1==24 XI2/Vmid gnd! CSFT5A area=6.3936e-11 perimeter=3.372e-05 m=1 
CXI2/CC1==25 XI2/Vmid gnd! CSFT5A area=6.3936e-11 perimeter=3.372e-05 m=1 
CXI2/CC1==26 XI2/Vmid gnd! CSFT5A area=6.3936e-11 perimeter=3.372e-05 m=1 
CXI2/CC1==27 XI2/Vmid gnd! CSFT5A area=6.3936e-11 perimeter=3.372e-05 m=1 
CXI2/CC1==28 XI2/Vmid gnd! CSFT5A area=6.3936e-11 perimeter=3.372e-05 m=1 
CXI2/CC1==29 XI2/Vmid gnd! CSFT5A area=6.3936e-11 perimeter=3.372e-05 m=1 
CXI2/CC1==30 XI2/Vmid gnd! CSFT5A area=6.3936e-11 perimeter=3.372e-05 m=1 
CXI2/CC1==31 XI2/Vmid gnd! CSFT5A area=6.3936e-11 perimeter=3.372e-05 m=1 
CXI2/CC1==32 XI2/Vmid gnd! CSFT5A area=6.3936e-11 perimeter=3.372e-05 m=1 
CXI2/CC1==33 XI2/Vmid gnd! CSFT5A area=6.3936e-11 perimeter=3.372e-05 m=1 
CXI2/CC1==34 XI2/Vmid gnd! CSFT5A area=6.3936e-11 perimeter=3.372e-05 m=1 
CXI2/CC1==35 XI2/Vmid gnd! CSFT5A area=6.3936e-11 perimeter=3.372e-05 m=1 
CXI2/CC1==36 XI2/Vmid gnd! CSFT5A area=6.3936e-11 perimeter=3.372e-05 m=1 
CXI2/CC1==37 XI2/Vmid gnd! CSFT5A area=6.3936e-11 perimeter=3.372e-05 m=1 
CXI2/CC1==38 XI2/Vmid gnd! CSFT5A area=6.3936e-11 perimeter=3.372e-05 m=1 
CXI2/CC1==39 XI2/Vmid gnd! CSFT5A area=6.3936e-11 perimeter=3.372e-05 m=1 
CXI2/CC1==40 XI2/Vmid gnd! CSFT5A area=6.3936e-11 perimeter=3.372e-05 m=1 
CXI2/CC1==41 XI2/Vmid gnd! CSFT5A area=6.3936e-11 perimeter=3.372e-05 m=1 
CXI2/CC1==42 XI2/Vmid gnd! CSFT5A area=6.3936e-11 perimeter=3.372e-05 m=1 
CXI2/CC1==43 XI2/Vmid gnd! CSFT5A area=6.3936e-11 perimeter=3.372e-05 m=1 
CXI2/CC1==44 XI2/Vmid gnd! CSFT5A area=6.3936e-11 perimeter=3.372e-05 m=1 
CXI2/CC1==45 XI2/Vmid gnd! CSFT5A area=6.3936e-11 perimeter=3.372e-05 m=1 
MXI2/MM17 XI2/Iout_LV XI2/Vmid gnd! gnd! LDDN W=1e-05 L=1.25e-06 m=1 $[LDDN] 
MXI2/MM15 XI2/Vmid vdd3! gnd! gnd! LDDN W=1e-05 L=1.25e-06 m=1 $[LDDN] 
MXI2/MM14 XI2/Iout2 XI2/Iout2 XI2/VG1 gnd! LDDN W=4e-05 L=1.25e-06 m=1 $[LDDN] 
MXI2/MM8 XI2/Iout1 XI2/Iout1 XI2/VB gnd! LDDN W=8e-05 L=1.25e-06 m=1 $[LDDN] 
MXI2/MM16 XI2/Bias2 XI2/en_3v XI2/Iout_LV gnd! LDDN W=6e-05 L=1.25e-06 m=1 $[LDDN] 
MXI2/MM16==2 XI2/Bias2 XI2/en_3v XI2/Iout_LV gnd! LDDN W=6e-05 L=1.25e-06 m=1 $[LDDN] 
MXI2/MM16==3 XI2/Bias2 XI2/en_3v XI2/Iout_LV gnd! LDDN W=6e-05 L=1.25e-06 m=1 $[LDDN] 
MXI2/MM16==4 XI2/Bias2 XI2/en_3v XI2/Iout_LV gnd! LDDN W=6e-05 L=1.25e-06 m=1 $[LDDN] 
MXI2/MM16==5 XI2/Bias2 XI2/en_3v XI2/Iout_LV gnd! LDDN W=6e-05 L=1.25e-06 m=1 $[LDDN] 
MXI2/MM5 XI2/VG1 XI2/VB XI2/VD_M4 gnd! LDDN W=8e-05 L=1.25e-06 m=1 $[LDDN] 
MXI2/MM0 Ist XI2/VB XI2/VD_M3 gnd! LDDN W=8e-05 L=1.25e-06 m=1 $[LDDN] 
MXI2/MM0==2 Ist XI2/VB XI2/VD_M3 gnd! LDDN W=8e-05 L=1.25e-06 m=1 $[LDDN] 
MXI2/MM0==3 Ist XI2/VB XI2/VD_M3 gnd! LDDN W=8e-05 L=1.25e-06 m=1 $[LDDN] 
MXI2/MM0==4 Ist XI2/VB XI2/VD_M3 gnd! LDDN W=8e-05 L=1.25e-06 m=1 $[LDDN] 
MXI2/MM0==5 Ist XI2/VB XI2/VD_M3 gnd! LDDN W=8e-05 L=1.25e-06 m=1 $[LDDN] 
MXI2/MM0==6 Ist XI2/VB XI2/VD_M3 gnd! LDDN W=8e-05 L=1.25e-06 m=1 $[LDDN] 
MXI2/MM0==7 Ist XI2/VB XI2/VD_M3 gnd! LDDN W=8e-05 L=1.25e-06 m=1 $[LDDN] 
MXI2/MM0==8 Ist XI2/VB XI2/VD_M3 gnd! LDDN W=8e-05 L=1.25e-06 m=1 $[LDDN] 
MXI2/MM0==9 Ist XI2/VB XI2/VD_M3 gnd! LDDN W=8e-05 L=1.25e-06 m=1 $[LDDN] 
MXI2/MM0==10 Ist XI2/VB XI2/VD_M3 gnd! LDDN W=8e-05 L=1.25e-06 m=1 $[LDDN] 
MXI2/MM7 XI2/VB XI2/Iout1 XI2/net16 gnd! LDDN W=3.5e-05 L=1.25e-06 m=1 $[LDDN] 
MXI2/MM6 XI2/net16 XI2/net16 gnd! gnd! LDDN W=8e-05 L=1.25e-06 m=1 $[LDDN] 
MXI2/MM4 XI2/VD_M4 XI2/VG1 gnd! gnd! LDDN W=8e-05 L=1.25e-06 m=1 $[LDDN] 
MXI2/MM3 XI2/VD_M3 XI2/VG1 gnd! gnd! LDDN W=8e-05 L=1.25e-06 m=1 $[LDDN] 
MXI2/MM3==2 XI2/VD_M3 XI2/VG1 gnd! gnd! LDDN W=8e-05 L=1.25e-06 m=1 $[LDDN] 
MXI2/MM3==3 XI2/VD_M3 XI2/VG1 gnd! gnd! LDDN W=8e-05 L=1.25e-06 m=1 $[LDDN] 
MXI2/MM3==4 XI2/VD_M3 XI2/VG1 gnd! gnd! LDDN W=8e-05 L=1.25e-06 m=1 $[LDDN] 
MXI2/MM3==5 XI2/VD_M3 XI2/VG1 gnd! gnd! LDDN W=8e-05 L=1.25e-06 m=1 $[LDDN] 
MXI2/MM3==6 XI2/VD_M3 XI2/VG1 gnd! gnd! LDDN W=8e-05 L=1.25e-06 m=1 $[LDDN] 
MXI2/MM3==7 XI2/VD_M3 XI2/VG1 gnd! gnd! LDDN W=8e-05 L=1.25e-06 m=1 $[LDDN] 
MXI2/MM3==8 XI2/VD_M3 XI2/VG1 gnd! gnd! LDDN W=8e-05 L=1.25e-06 m=1 $[LDDN] 
MXI2/MM3==9 XI2/VD_M3 XI2/VG1 gnd! gnd! LDDN W=8e-05 L=1.25e-06 m=1 $[LDDN] 
MXI2/MM3==10 XI2/VD_M3 XI2/VG1 gnd! gnd! LDDN W=8e-05 L=1.25e-06 m=1 $[LDDN] 
MXI2/MM11 XI2/VD_M11 XI2/Bias1 vddh gnd! LDDP W=3e-05 L=9.4e-07 m=1 $[LDDP] 
MXI2/MM1 XI2/VD_M1 XI2/Bias1 vddh gnd! LDDP W=3e-05 L=9.4e-07 m=1 $[LDDP] 
MXI2/MM2 XI2/Bias1 XI2/Bias1 vddh gnd! LDDP W=3e-05 L=9.4e-07 m=1 $[LDDP] 
MXI2/MM12 XI2/Iout2 XI2/Bias2 XI2/VD_M11 gnd! LDDP W=3e-05 L=9.4e-07 m=1 $[LDDP] 
MXI2/MM10 XI2/Iout1 XI2/Bias2 XI2/VD_M1 gnd! LDDP W=3e-05 L=9.4e-07 m=1 $[LDDP] 
MXI2/MM9 XI2/Bias2 XI2/Bias2 XI2/Bias1 gnd! LDDP W=3e-05 L=9.4e-07 m=1 $[LDDP] 
MXI1/MM0 vdd3! vdd3! vdd3! vdd3! PE3 W=6e-06 L=2e-06 m=1 
MXI1/MM0==2 vdd3! vdd3! vdd3! vdd3! PE3 W=6e-06 L=2e-06 m=1 
MXI1/MM0==3 vdd3! vdd3! vdd3! vdd3! PE3 W=6e-06 L=2e-06 m=1 
MXI1/MM0==4 vdd3! vdd3! vdd3! vdd3! PE3 W=6e-06 L=2e-06 m=1 
MXI1/MM0==5 vdd3! vdd3! vdd3! vdd3! PE3 W=6e-06 L=2e-06 m=1 
MXI1/MM0==6 vdd3! vdd3! vdd3! vdd3! PE3 W=6e-06 L=2e-06 m=1 
MXI1/MM0==7 vdd3! vdd3! vdd3! vdd3! PE3 W=6e-06 L=2e-06 m=1 
MXI1/MM0==8 vdd3! vdd3! vdd3! vdd3! PE3 W=6e-06 L=2e-06 m=1 
MXI1/MM1 Iref Iref XI1/Vbias vdd3! PE3 W=6e-06 L=2e-06 m=1 
MXI1/MM1==2 Iref Iref XI1/Vbias vdd3! PE3 W=6e-06 L=2e-06 m=1 
MXI1/MM1==3 Iref Iref XI1/Vbias vdd3! PE3 W=6e-06 L=2e-06 m=1 
MXI1/MM1==4 Iref Iref XI1/Vbias vdd3! PE3 W=6e-06 L=2e-06 m=1 
MXI1/MM31 net9 D0_3v XI1/Ix1 vdd3! PE3 W=2e-06 L=3e-07 m=1 
MXI1/MM31==2 net9 D0_3v XI1/Ix1 vdd3! PE3 W=2e-06 L=3e-07 m=1 
MXI1/MM31==3 net9 D0_3v XI1/Ix1 vdd3! PE3 W=2e-06 L=3e-07 m=1 
MXI1/MM31==4 net9 D0_3v XI1/Ix1 vdd3! PE3 W=2e-06 L=3e-07 m=1 
MXI1/MM31==5 net9 D0_3v XI1/Ix1 vdd3! PE3 W=2e-06 L=3e-07 m=1 
MXI1/MM31==6 net9 D0_3v XI1/Ix1 vdd3! PE3 W=2e-06 L=3e-07 m=1 
MXI1/MM31==7 net9 D0_3v XI1/Ix1 vdd3! PE3 W=2e-06 L=3e-07 m=1 
MXI1/MM31==8 net9 D0_3v XI1/Ix1 vdd3! PE3 W=2e-06 L=3e-07 m=1 
MXI1/MM20 XI1/n1 XI1/Vbias vdd3! vdd3! PE3 W=6e-06 L=2e-06 m=1 
MXI1/MM20==2 XI1/n1 XI1/Vbias vdd3! vdd3! PE3 W=6e-06 L=2e-06 m=1 
MXI1/MM20==3 XI1/n1 XI1/Vbias vdd3! vdd3! PE3 W=6e-06 L=2e-06 m=1 
MXI1/MM20==4 XI1/n1 XI1/Vbias vdd3! vdd3! PE3 W=6e-06 L=2e-06 m=1 
MXI1/MM22 XI1/Ix1 Iref XI1/n1 vdd3! PE3 W=6e-06 L=2e-06 m=1 
MXI1/MM22==2 XI1/Ix1 Iref XI1/n1 vdd3! PE3 W=6e-06 L=2e-06 m=1 
MXI1/MM22==3 XI1/Ix1 Iref XI1/n1 vdd3! PE3 W=6e-06 L=2e-06 m=1 
MXI1/MM22==4 XI1/Ix1 Iref XI1/n1 vdd3! PE3 W=6e-06 L=2e-06 m=1 
MXI1/MM23 XI1/n2 XI1/Vbias vdd3! vdd3! PE3 W=6e-06 L=2e-06 m=1 
MXI1/MM23==2 XI1/n2 XI1/Vbias vdd3! vdd3! PE3 W=6e-06 L=2e-06 m=1 
MXI1/MM23==3 XI1/n2 XI1/Vbias vdd3! vdd3! PE3 W=6e-06 L=2e-06 m=1 
MXI1/MM23==4 XI1/n2 XI1/Vbias vdd3! vdd3! PE3 W=6e-06 L=2e-06 m=1 
MXI1/MM23==5 XI1/n2 XI1/Vbias vdd3! vdd3! PE3 W=6e-06 L=2e-06 m=1 
MXI1/MM23==6 XI1/n2 XI1/Vbias vdd3! vdd3! PE3 W=6e-06 L=2e-06 m=1 
MXI1/MM23==7 XI1/n2 XI1/Vbias vdd3! vdd3! PE3 W=6e-06 L=2e-06 m=1 
MXI1/MM23==8 XI1/n2 XI1/Vbias vdd3! vdd3! PE3 W=6e-06 L=2e-06 m=1 
MXI1/MM24 XI1/Ix2 Iref XI1/n2 vdd3! PE3 W=6e-06 L=2e-06 m=1 
MXI1/MM24==2 XI1/Ix2 Iref XI1/n2 vdd3! PE3 W=6e-06 L=2e-06 m=1 
MXI1/MM24==3 XI1/Ix2 Iref XI1/n2 vdd3! PE3 W=6e-06 L=2e-06 m=1 
MXI1/MM24==4 XI1/Ix2 Iref XI1/n2 vdd3! PE3 W=6e-06 L=2e-06 m=1 
MXI1/MM24==5 XI1/Ix2 Iref XI1/n2 vdd3! PE3 W=6e-06 L=2e-06 m=1 
MXI1/MM24==6 XI1/Ix2 Iref XI1/n2 vdd3! PE3 W=6e-06 L=2e-06 m=1 
MXI1/MM24==7 XI1/Ix2 Iref XI1/n2 vdd3! PE3 W=6e-06 L=2e-06 m=1 
MXI1/MM24==8 XI1/Ix2 Iref XI1/n2 vdd3! PE3 W=6e-06 L=2e-06 m=1 
MXI1/MM25 XI1/n3 XI1/Vbias vdd3! vdd3! PE3 W=6e-06 L=2e-06 m=1 
MXI1/MM25==2 XI1/n3 XI1/Vbias vdd3! vdd3! PE3 W=6e-06 L=2e-06 m=1 
MXI1/MM25==3 XI1/n3 XI1/Vbias vdd3! vdd3! PE3 W=6e-06 L=2e-06 m=1 
MXI1/MM25==4 XI1/n3 XI1/Vbias vdd3! vdd3! PE3 W=6e-06 L=2e-06 m=1 
MXI1/MM25==5 XI1/n3 XI1/Vbias vdd3! vdd3! PE3 W=6e-06 L=2e-06 m=1 
MXI1/MM25==6 XI1/n3 XI1/Vbias vdd3! vdd3! PE3 W=6e-06 L=2e-06 m=1 
MXI1/MM25==7 XI1/n3 XI1/Vbias vdd3! vdd3! PE3 W=6e-06 L=2e-06 m=1 
MXI1/MM25==8 XI1/n3 XI1/Vbias vdd3! vdd3! PE3 W=6e-06 L=2e-06 m=1 
MXI1/MM25==9 XI1/n3 XI1/Vbias vdd3! vdd3! PE3 W=6e-06 L=2e-06 m=1 
MXI1/MM25==10 XI1/n3 XI1/Vbias vdd3! vdd3! PE3 W=6e-06 L=2e-06 m=1 
MXI1/MM25==11 XI1/n3 XI1/Vbias vdd3! vdd3! PE3 W=6e-06 L=2e-06 m=1 
MXI1/MM25==12 XI1/n3 XI1/Vbias vdd3! vdd3! PE3 W=6e-06 L=2e-06 m=1 
MXI1/MM25==13 XI1/n3 XI1/Vbias vdd3! vdd3! PE3 W=6e-06 L=2e-06 m=1 
MXI1/MM25==14 XI1/n3 XI1/Vbias vdd3! vdd3! PE3 W=6e-06 L=2e-06 m=1 
MXI1/MM25==15 XI1/n3 XI1/Vbias vdd3! vdd3! PE3 W=6e-06 L=2e-06 m=1 
MXI1/MM25==16 XI1/n3 XI1/Vbias vdd3! vdd3! PE3 W=6e-06 L=2e-06 m=1 
MXI1/MM29 XI1/Ix4 Iref XI1/n3 vdd3! PE3 W=6e-06 L=2e-06 m=1 
MXI1/MM29==2 XI1/Ix4 Iref XI1/n3 vdd3! PE3 W=6e-06 L=2e-06 m=1 
MXI1/MM29==3 XI1/Ix4 Iref XI1/n3 vdd3! PE3 W=6e-06 L=2e-06 m=1 
MXI1/MM29==4 XI1/Ix4 Iref XI1/n3 vdd3! PE3 W=6e-06 L=2e-06 m=1 
MXI1/MM29==5 XI1/Ix4 Iref XI1/n3 vdd3! PE3 W=6e-06 L=2e-06 m=1 
MXI1/MM29==6 XI1/Ix4 Iref XI1/n3 vdd3! PE3 W=6e-06 L=2e-06 m=1 
MXI1/MM29==7 XI1/Ix4 Iref XI1/n3 vdd3! PE3 W=6e-06 L=2e-06 m=1 
MXI1/MM29==8 XI1/Ix4 Iref XI1/n3 vdd3! PE3 W=6e-06 L=2e-06 m=1 
MXI1/MM29==9 XI1/Ix4 Iref XI1/n3 vdd3! PE3 W=6e-06 L=2e-06 m=1 
MXI1/MM29==10 XI1/Ix4 Iref XI1/n3 vdd3! PE3 W=6e-06 L=2e-06 m=1 
MXI1/MM29==11 XI1/Ix4 Iref XI1/n3 vdd3! PE3 W=6e-06 L=2e-06 m=1 
MXI1/MM29==12 XI1/Ix4 Iref XI1/n3 vdd3! PE3 W=6e-06 L=2e-06 m=1 
MXI1/MM29==13 XI1/Ix4 Iref XI1/n3 vdd3! PE3 W=6e-06 L=2e-06 m=1 
MXI1/MM29==14 XI1/Ix4 Iref XI1/n3 vdd3! PE3 W=6e-06 L=2e-06 m=1 
MXI1/MM29==15 XI1/Ix4 Iref XI1/n3 vdd3! PE3 W=6e-06 L=2e-06 m=1 
MXI1/MM29==16 XI1/Ix4 Iref XI1/n3 vdd3! PE3 W=6e-06 L=2e-06 m=1 
MXI1/MM32 XI1/Ix8 Iref XI1/n4 vdd3! PE3 W=6e-06 L=2e-06 m=1 
MXI1/MM32==2 XI1/Ix8 Iref XI1/n4 vdd3! PE3 W=6e-06 L=2e-06 m=1 
MXI1/MM32==3 XI1/Ix8 Iref XI1/n4 vdd3! PE3 W=6e-06 L=2e-06 m=1 
MXI1/MM32==4 XI1/Ix8 Iref XI1/n4 vdd3! PE3 W=6e-06 L=2e-06 m=1 
MXI1/MM32==5 XI1/Ix8 Iref XI1/n4 vdd3! PE3 W=6e-06 L=2e-06 m=1 
MXI1/MM32==6 XI1/Ix8 Iref XI1/n4 vdd3! PE3 W=6e-06 L=2e-06 m=1 
MXI1/MM32==7 XI1/Ix8 Iref XI1/n4 vdd3! PE3 W=6e-06 L=2e-06 m=1 
MXI1/MM32==8 XI1/Ix8 Iref XI1/n4 vdd3! PE3 W=6e-06 L=2e-06 m=1 
MXI1/MM32==9 XI1/Ix8 Iref XI1/n4 vdd3! PE3 W=6e-06 L=2e-06 m=1 
MXI1/MM32==10 XI1/Ix8 Iref XI1/n4 vdd3! PE3 W=6e-06 L=2e-06 m=1 
MXI1/MM32==11 XI1/Ix8 Iref XI1/n4 vdd3! PE3 W=6e-06 L=2e-06 m=1 
MXI1/MM32==12 XI1/Ix8 Iref XI1/n4 vdd3! PE3 W=6e-06 L=2e-06 m=1 
MXI1/MM32==13 XI1/Ix8 Iref XI1/n4 vdd3! PE3 W=6e-06 L=2e-06 m=1 
MXI1/MM32==14 XI1/Ix8 Iref XI1/n4 vdd3! PE3 W=6e-06 L=2e-06 m=1 
MXI1/MM32==15 XI1/Ix8 Iref XI1/n4 vdd3! PE3 W=6e-06 L=2e-06 m=1 
MXI1/MM32==16 XI1/Ix8 Iref XI1/n4 vdd3! PE3 W=6e-06 L=2e-06 m=1 
MXI1/MM32==17 XI1/Ix8 Iref XI1/n4 vdd3! PE3 W=6e-06 L=2e-06 m=1 
MXI1/MM32==18 XI1/Ix8 Iref XI1/n4 vdd3! PE3 W=6e-06 L=2e-06 m=1 
MXI1/MM32==19 XI1/Ix8 Iref XI1/n4 vdd3! PE3 W=6e-06 L=2e-06 m=1 
MXI1/MM32==20 XI1/Ix8 Iref XI1/n4 vdd3! PE3 W=6e-06 L=2e-06 m=1 
MXI1/MM32==21 XI1/Ix8 Iref XI1/n4 vdd3! PE3 W=6e-06 L=2e-06 m=1 
MXI1/MM32==22 XI1/Ix8 Iref XI1/n4 vdd3! PE3 W=6e-06 L=2e-06 m=1 
MXI1/MM32==23 XI1/Ix8 Iref XI1/n4 vdd3! PE3 W=6e-06 L=2e-06 m=1 
MXI1/MM32==24 XI1/Ix8 Iref XI1/n4 vdd3! PE3 W=6e-06 L=2e-06 m=1 
MXI1/MM32==25 XI1/Ix8 Iref XI1/n4 vdd3! PE3 W=6e-06 L=2e-06 m=1 
MXI1/MM32==26 XI1/Ix8 Iref XI1/n4 vdd3! PE3 W=6e-06 L=2e-06 m=1 
MXI1/MM32==27 XI1/Ix8 Iref XI1/n4 vdd3! PE3 W=6e-06 L=2e-06 m=1 
MXI1/MM32==28 XI1/Ix8 Iref XI1/n4 vdd3! PE3 W=6e-06 L=2e-06 m=1 
MXI1/MM32==29 XI1/Ix8 Iref XI1/n4 vdd3! PE3 W=6e-06 L=2e-06 m=1 
MXI1/MM32==30 XI1/Ix8 Iref XI1/n4 vdd3! PE3 W=6e-06 L=2e-06 m=1 
MXI1/MM32==31 XI1/Ix8 Iref XI1/n4 vdd3! PE3 W=6e-06 L=2e-06 m=1 
MXI1/MM32==32 XI1/Ix8 Iref XI1/n4 vdd3! PE3 W=6e-06 L=2e-06 m=1 
MXI1/MM33 XI1/n4 XI1/Vbias vdd3! vdd3! PE3 W=6e-06 L=2e-06 m=1 
MXI1/MM33==2 XI1/n4 XI1/Vbias vdd3! vdd3! PE3 W=6e-06 L=2e-06 m=1 
MXI1/MM33==3 XI1/n4 XI1/Vbias vdd3! vdd3! PE3 W=6e-06 L=2e-06 m=1 
MXI1/MM33==4 XI1/n4 XI1/Vbias vdd3! vdd3! PE3 W=6e-06 L=2e-06 m=1 
MXI1/MM33==5 XI1/n4 XI1/Vbias vdd3! vdd3! PE3 W=6e-06 L=2e-06 m=1 
MXI1/MM33==6 XI1/n4 XI1/Vbias vdd3! vdd3! PE3 W=6e-06 L=2e-06 m=1 
MXI1/MM33==7 XI1/n4 XI1/Vbias vdd3! vdd3! PE3 W=6e-06 L=2e-06 m=1 
MXI1/MM33==8 XI1/n4 XI1/Vbias vdd3! vdd3! PE3 W=6e-06 L=2e-06 m=1 
MXI1/MM33==9 XI1/n4 XI1/Vbias vdd3! vdd3! PE3 W=6e-06 L=2e-06 m=1 
MXI1/MM33==10 XI1/n4 XI1/Vbias vdd3! vdd3! PE3 W=6e-06 L=2e-06 m=1 
MXI1/MM33==11 XI1/n4 XI1/Vbias vdd3! vdd3! PE3 W=6e-06 L=2e-06 m=1 
MXI1/MM33==12 XI1/n4 XI1/Vbias vdd3! vdd3! PE3 W=6e-06 L=2e-06 m=1 
MXI1/MM33==13 XI1/n4 XI1/Vbias vdd3! vdd3! PE3 W=6e-06 L=2e-06 m=1 
MXI1/MM33==14 XI1/n4 XI1/Vbias vdd3! vdd3! PE3 W=6e-06 L=2e-06 m=1 
MXI1/MM33==15 XI1/n4 XI1/Vbias vdd3! vdd3! PE3 W=6e-06 L=2e-06 m=1 
MXI1/MM33==16 XI1/n4 XI1/Vbias vdd3! vdd3! PE3 W=6e-06 L=2e-06 m=1 
MXI1/MM33==17 XI1/n4 XI1/Vbias vdd3! vdd3! PE3 W=6e-06 L=2e-06 m=1 
MXI1/MM33==18 XI1/n4 XI1/Vbias vdd3! vdd3! PE3 W=6e-06 L=2e-06 m=1 
MXI1/MM33==19 XI1/n4 XI1/Vbias vdd3! vdd3! PE3 W=6e-06 L=2e-06 m=1 
MXI1/MM33==20 XI1/n4 XI1/Vbias vdd3! vdd3! PE3 W=6e-06 L=2e-06 m=1 
MXI1/MM33==21 XI1/n4 XI1/Vbias vdd3! vdd3! PE3 W=6e-06 L=2e-06 m=1 
MXI1/MM33==22 XI1/n4 XI1/Vbias vdd3! vdd3! PE3 W=6e-06 L=2e-06 m=1 
MXI1/MM33==23 XI1/n4 XI1/Vbias vdd3! vdd3! PE3 W=6e-06 L=2e-06 m=1 
MXI1/MM33==24 XI1/n4 XI1/Vbias vdd3! vdd3! PE3 W=6e-06 L=2e-06 m=1 
MXI1/MM33==25 XI1/n4 XI1/Vbias vdd3! vdd3! PE3 W=6e-06 L=2e-06 m=1 
MXI1/MM33==26 XI1/n4 XI1/Vbias vdd3! vdd3! PE3 W=6e-06 L=2e-06 m=1 
MXI1/MM33==27 XI1/n4 XI1/Vbias vdd3! vdd3! PE3 W=6e-06 L=2e-06 m=1 
MXI1/MM33==28 XI1/n4 XI1/Vbias vdd3! vdd3! PE3 W=6e-06 L=2e-06 m=1 
MXI1/MM33==29 XI1/n4 XI1/Vbias vdd3! vdd3! PE3 W=6e-06 L=2e-06 m=1 
MXI1/MM33==30 XI1/n4 XI1/Vbias vdd3! vdd3! PE3 W=6e-06 L=2e-06 m=1 
MXI1/MM33==31 XI1/n4 XI1/Vbias vdd3! vdd3! PE3 W=6e-06 L=2e-06 m=1 
MXI1/MM33==32 XI1/n4 XI1/Vbias vdd3! vdd3! PE3 W=6e-06 L=2e-06 m=1 
MXI1/MM35 XI1/n5 XI1/Vbias vdd3! vdd3! PE3 W=6e-06 L=2e-06 m=1 
MXI1/MM35==2 XI1/n5 XI1/Vbias vdd3! vdd3! PE3 W=6e-06 L=2e-06 m=1 
MXI1/MM35==3 XI1/n5 XI1/Vbias vdd3! vdd3! PE3 W=6e-06 L=2e-06 m=1 
MXI1/MM35==4 XI1/n5 XI1/Vbias vdd3! vdd3! PE3 W=6e-06 L=2e-06 m=1 
MXI1/MM35==5 XI1/n5 XI1/Vbias vdd3! vdd3! PE3 W=6e-06 L=2e-06 m=1 
MXI1/MM35==6 XI1/n5 XI1/Vbias vdd3! vdd3! PE3 W=6e-06 L=2e-06 m=1 
MXI1/MM35==7 XI1/n5 XI1/Vbias vdd3! vdd3! PE3 W=6e-06 L=2e-06 m=1 
MXI1/MM35==8 XI1/n5 XI1/Vbias vdd3! vdd3! PE3 W=6e-06 L=2e-06 m=1 
MXI1/MM35==9 XI1/n5 XI1/Vbias vdd3! vdd3! PE3 W=6e-06 L=2e-06 m=1 
MXI1/MM35==10 XI1/n5 XI1/Vbias vdd3! vdd3! PE3 W=6e-06 L=2e-06 m=1 
MXI1/MM35==11 XI1/n5 XI1/Vbias vdd3! vdd3! PE3 W=6e-06 L=2e-06 m=1 
MXI1/MM35==12 XI1/n5 XI1/Vbias vdd3! vdd3! PE3 W=6e-06 L=2e-06 m=1 
MXI1/MM35==13 XI1/n5 XI1/Vbias vdd3! vdd3! PE3 W=6e-06 L=2e-06 m=1 
MXI1/MM35==14 XI1/n5 XI1/Vbias vdd3! vdd3! PE3 W=6e-06 L=2e-06 m=1 
MXI1/MM35==15 XI1/n5 XI1/Vbias vdd3! vdd3! PE3 W=6e-06 L=2e-06 m=1 
MXI1/MM35==16 XI1/n5 XI1/Vbias vdd3! vdd3! PE3 W=6e-06 L=2e-06 m=1 
MXI1/MM35==17 XI1/n5 XI1/Vbias vdd3! vdd3! PE3 W=6e-06 L=2e-06 m=1 
MXI1/MM35==18 XI1/n5 XI1/Vbias vdd3! vdd3! PE3 W=6e-06 L=2e-06 m=1 
MXI1/MM35==19 XI1/n5 XI1/Vbias vdd3! vdd3! PE3 W=6e-06 L=2e-06 m=1 
MXI1/MM35==20 XI1/n5 XI1/Vbias vdd3! vdd3! PE3 W=6e-06 L=2e-06 m=1 
MXI1/MM35==21 XI1/n5 XI1/Vbias vdd3! vdd3! PE3 W=6e-06 L=2e-06 m=1 
MXI1/MM35==22 XI1/n5 XI1/Vbias vdd3! vdd3! PE3 W=6e-06 L=2e-06 m=1 
MXI1/MM35==23 XI1/n5 XI1/Vbias vdd3! vdd3! PE3 W=6e-06 L=2e-06 m=1 
MXI1/MM35==24 XI1/n5 XI1/Vbias vdd3! vdd3! PE3 W=6e-06 L=2e-06 m=1 
MXI1/MM35==25 XI1/n5 XI1/Vbias vdd3! vdd3! PE3 W=6e-06 L=2e-06 m=1 
MXI1/MM35==26 XI1/n5 XI1/Vbias vdd3! vdd3! PE3 W=6e-06 L=2e-06 m=1 
MXI1/MM35==27 XI1/n5 XI1/Vbias vdd3! vdd3! PE3 W=6e-06 L=2e-06 m=1 
MXI1/MM35==28 XI1/n5 XI1/Vbias vdd3! vdd3! PE3 W=6e-06 L=2e-06 m=1 
MXI1/MM35==29 XI1/n5 XI1/Vbias vdd3! vdd3! PE3 W=6e-06 L=2e-06 m=1 
MXI1/MM35==30 XI1/n5 XI1/Vbias vdd3! vdd3! PE3 W=6e-06 L=2e-06 m=1 
MXI1/MM35==31 XI1/n5 XI1/Vbias vdd3! vdd3! PE3 W=6e-06 L=2e-06 m=1 
MXI1/MM35==32 XI1/n5 XI1/Vbias vdd3! vdd3! PE3 W=6e-06 L=2e-06 m=1 
MXI1/MM35==33 XI1/n5 XI1/Vbias vdd3! vdd3! PE3 W=6e-06 L=2e-06 m=1 
MXI1/MM35==34 XI1/n5 XI1/Vbias vdd3! vdd3! PE3 W=6e-06 L=2e-06 m=1 
MXI1/MM35==35 XI1/n5 XI1/Vbias vdd3! vdd3! PE3 W=6e-06 L=2e-06 m=1 
MXI1/MM35==36 XI1/n5 XI1/Vbias vdd3! vdd3! PE3 W=6e-06 L=2e-06 m=1 
MXI1/MM35==37 XI1/n5 XI1/Vbias vdd3! vdd3! PE3 W=6e-06 L=2e-06 m=1 
MXI1/MM35==38 XI1/n5 XI1/Vbias vdd3! vdd3! PE3 W=6e-06 L=2e-06 m=1 
MXI1/MM35==39 XI1/n5 XI1/Vbias vdd3! vdd3! PE3 W=6e-06 L=2e-06 m=1 
MXI1/MM35==40 XI1/n5 XI1/Vbias vdd3! vdd3! PE3 W=6e-06 L=2e-06 m=1 
MXI1/MM35==41 XI1/n5 XI1/Vbias vdd3! vdd3! PE3 W=6e-06 L=2e-06 m=1 
MXI1/MM35==42 XI1/n5 XI1/Vbias vdd3! vdd3! PE3 W=6e-06 L=2e-06 m=1 
MXI1/MM35==43 XI1/n5 XI1/Vbias vdd3! vdd3! PE3 W=6e-06 L=2e-06 m=1 
MXI1/MM35==44 XI1/n5 XI1/Vbias vdd3! vdd3! PE3 W=6e-06 L=2e-06 m=1 
MXI1/MM35==45 XI1/n5 XI1/Vbias vdd3! vdd3! PE3 W=6e-06 L=2e-06 m=1 
MXI1/MM35==46 XI1/n5 XI1/Vbias vdd3! vdd3! PE3 W=6e-06 L=2e-06 m=1 
MXI1/MM35==47 XI1/n5 XI1/Vbias vdd3! vdd3! PE3 W=6e-06 L=2e-06 m=1 
MXI1/MM35==48 XI1/n5 XI1/Vbias vdd3! vdd3! PE3 W=6e-06 L=2e-06 m=1 
MXI1/MM35==49 XI1/n5 XI1/Vbias vdd3! vdd3! PE3 W=6e-06 L=2e-06 m=1 
MXI1/MM35==50 XI1/n5 XI1/Vbias vdd3! vdd3! PE3 W=6e-06 L=2e-06 m=1 