// Generated for: spectre
// Generated on: May  6 13:11:30 2021
// Design library name: Stimulator_TestBench
// Design cell name: TB_ChannelSelection_imp
// Design view name: config
simulator lang=spectre binding=vlog  
global 0 vdd3! vdde! vdd!
