// Generated for: spectre
// Generated on: Apr  5 11:42:23 2021
// Design library name: Stimulator_TestBench
// Design cell name: TB_ChannelSelection_imp
// Design view name: config
simulator lang=spectre binding=vlog  
global 0 vdd3! vdde! vdd!
