// Generated for: spectre
// Generated on: Nov 16 22:09:16 2020
// Design library name: EMG_TestBench
// Design cell name: TB_IA_EMG
// Design view name: config
simulator lang=spectre binding=vlog  
global 0
