simulator lang=spectre
include "ne3.scs"
include "nedia.scs"
include "nmma_bjt.scs"
include "pe3.scs"
include "ped.scs"
include "pmma_bjt.scs"
