// Generated for: spectre
// Generated on: Mar 11 16:49:38 2021
// Design library name: Stimulator_TestBench
// Design cell name: TB_Bias_Gen
// Design view name: schematic
simulator lang=spectre
global 0
