// Generated for: spectre
// Generated on: Mar 25 12:31:50 2021
// Design library name: Stimulator_TestBench
// Design cell name: TB_OneChannel_imp
// Design view name: schematic
simulator lang=spectre
global 0 vdd3! vdde!
