simulator lang=spectre
include "nmma_bjt.scs"
include "pmma_bjt.scs"
