simulator lang=spectre
include "nhhv.scs"
