// Generated for: spectre
// Generated on: Feb 27 15:56:49 2021
// Design library name: Device_Characteristics
// Design cell name: DC_BIAS_nhhv
// Design view name: schematic
simulator lang=spectre
global 0
