// Generated for: spectre
// Generated on: Sep 29 00:13:07 2020
// Design library name: EMG_202009
// Design cell name: TB_MultiplexingADC
// Design view name: config
simulator lang=spectre binding=vlog  
global 0
