** Layout Netlist, pvs precompare
** 

.subckt Idac_5bit_ST_V3 D0_3v D1_3v D2_3v D3_3v D4_3v Idac Iref vdd3! 
MX1139/M0 Idac D0_3v 7 vdd3! PE3 L=3e-07 W=2e-06 m=1 
MX1139/M1 7 D0_3v Idac vdd3! PE3 L=3e-07 W=2e-06 m=1 
MX1139/M2 Idac D0_3v 7 vdd3! PE3 L=3e-07 W=2e-06 m=1 
MX1139/M3 7 D0_3v Idac vdd3! PE3 L=3e-07 W=2e-06 m=1 
MX1139/M4 Idac D0_3v 7 vdd3! PE3 L=3e-07 W=2e-06 m=1 
MX1139/M5 7 D0_3v Idac vdd3! PE3 L=3e-07 W=2e-06 m=1 
MX1139/M6 Idac D0_3v 7 vdd3! PE3 L=3e-07 W=2e-06 m=1 
MX1139/M7 7 D0_3v Idac vdd3! PE3 L=3e-07 W=2e-06 m=1 
MX1140/M0 Idac D1_3v 8 vdd3! PE3 L=3e-07 W=2e-06 m=1 
MX1140/M1 8 D1_3v Idac vdd3! PE3 L=3e-07 W=2e-06 m=1 
MX1140/M2 Idac D1_3v 8 vdd3! PE3 L=3e-07 W=2e-06 m=1 
MX1140/M3 8 D1_3v Idac vdd3! PE3 L=3e-07 W=2e-06 m=1 
MX1140/M4 Idac D1_3v 8 vdd3! PE3 L=3e-07 W=2e-06 m=1 
MX1140/M5 8 D1_3v Idac vdd3! PE3 L=3e-07 W=2e-06 m=1 
MX1140/M6 Idac D1_3v 8 vdd3! PE3 L=3e-07 W=2e-06 m=1 
MX1140/M7 8 D1_3v Idac vdd3! PE3 L=3e-07 W=2e-06 m=1 
MX1141/M0 Idac D2_3v 9 vdd3! PE3 L=3e-07 W=2e-06 m=1 
MX1141/M1 9 D2_3v Idac vdd3! PE3 L=3e-07 W=2e-06 m=1 
MX1141/M2 Idac D2_3v 9 vdd3! PE3 L=3e-07 W=2e-06 m=1 
MX1141/M3 9 D2_3v Idac vdd3! PE3 L=3e-07 W=2e-06 m=1 
MX1141/M4 Idac D2_3v 9 vdd3! PE3 L=3e-07 W=2e-06 m=1 
MX1141/M5 9 D2_3v Idac vdd3! PE3 L=3e-07 W=2e-06 m=1 
MX1141/M6 Idac D2_3v 9 vdd3! PE3 L=3e-07 W=2e-06 m=1 
MX1141/M7 9 D2_3v Idac vdd3! PE3 L=3e-07 W=2e-06 m=1 
MX1142/M0 Idac D3_3v 10 vdd3! PE3 L=3e-07 W=2e-06 m=1 
MX1142/M1 10 D3_3v Idac vdd3! PE3 L=3e-07 W=2e-06 m=1 
MX1142/M2 Idac D3_3v 10 vdd3! PE3 L=3e-07 W=2e-06 m=1 
MX1142/M3 10 D3_3v Idac vdd3! PE3 L=3e-07 W=2e-06 m=1 
MX1142/M4 Idac D3_3v 10 vdd3! PE3 L=3e-07 W=2e-06 m=1 
MX1142/M5 10 D3_3v Idac vdd3! PE3 L=3e-07 W=2e-06 m=1 
MX1142/M6 Idac D3_3v 10 vdd3! PE3 L=3e-07 W=2e-06 m=1 
MX1142/M7 10 D3_3v Idac vdd3! PE3 L=3e-07 W=2e-06 m=1 
MX1143/M0 Idac D4_3v 11 vdd3! PE3 L=3e-07 W=2e-06 m=1 
MX1143/M1 11 D4_3v Idac vdd3! PE3 L=3e-07 W=2e-06 m=1 
MX1143/M2 Idac D4_3v 11 vdd3! PE3 L=3e-07 W=2e-06 m=1 
MX1143/M3 11 D4_3v Idac vdd3! PE3 L=3e-07 W=2e-06 m=1 
MX1143/M4 Idac D4_3v 11 vdd3! PE3 L=3e-07 W=2e-06 m=1 
MX1143/M5 11 D4_3v Idac vdd3! PE3 L=3e-07 W=2e-06 m=1 
MX1143/M6 Idac D4_3v 11 vdd3! PE3 L=3e-07 W=2e-06 m=1 
MX1143/M7 11 D4_3v Idac vdd3! PE3 L=3e-07 W=2e-06 m=1 
MX1144/M0 8 Iref 18 vdd3! PE3 L=2e-06 W=6e-06 m=1 
MX1145/M0 Iref Iref 15 vdd3! PE3 L=2e-06 W=6e-06 m=1 
MX1146/M0 Iref Iref 15 vdd3! PE3 L=2e-06 W=6e-06 m=1 
MX1147/M0 8 Iref 18 vdd3! PE3 L=2e-06 W=6e-06 m=1 
MX1148/M0 7 Iref 17 vdd3! PE3 L=2e-06 W=6e-06 m=1 
MX1149/M0 8 Iref 18 vdd3! PE3 L=2e-06 W=6e-06 m=1 
MX1150/M0 8 Iref 18 vdd3! PE3 L=2e-06 W=6e-06 m=1 
MX1151/M0 7 Iref 17 vdd3! PE3 L=2e-06 W=6e-06 m=1 
MX1152/M0 13 15 vdd3! vdd3! PE3 L=2e-06 W=6e-06 m=1 
MX1153/M0 16 15 vdd3! vdd3! PE3 L=2e-06 W=6e-06 m=1 
MX1154/M0 16 15 vdd3! vdd3! PE3 L=2e-06 W=6e-06 m=1 
MX1155/M0 13 15 vdd3! vdd3! PE3 L=2e-06 W=6e-06 m=1 
MX1156/M0 vdd3! vdd3! vdd3! vdd3! PE3 L=2e-06 W=6e-06 m=1 
MX1157/M0 vdd3! vdd3! vdd3! vdd3! PE3 L=2e-06 W=6e-06 m=1 
MX1158/M0 vdd3! vdd3! vdd3! vdd3! PE3 L=2e-06 W=6e-06 m=1 
MX1159/M0 vdd3! vdd3! vdd3! vdd3! PE3 L=2e-06 W=6e-06 m=1 
MX1160/X0/M0 11 Iref 13 vdd3! PE3 L=2e-06 W=6e-06 m=1 
MX1160/X1/M0 11 Iref 13 vdd3! PE3 L=2e-06 W=6e-06 m=1 
MX1161/X0/M0 11 Iref 13 vdd3! PE3 L=2e-06 W=6e-06 m=1 
MX1161/X1/M0 10 Iref 16 vdd3! PE3 L=2e-06 W=6e-06 m=1 
MX1162/X0/M0 11 Iref 13 vdd3! PE3 L=2e-06 W=6e-06 m=1 
MX1162/X1/M0 10 Iref 16 vdd3! PE3 L=2e-06 W=6e-06 m=1 
MX1163/X0/M0 11 Iref 13 vdd3! PE3 L=2e-06 W=6e-06 m=1 
MX1163/X1/M0 11 Iref 13 vdd3! PE3 L=2e-06 W=6e-06 m=1 
MX1164/X0/X0/M0 10 Iref 16 vdd3! PE3 L=2e-06 W=6e-06 m=1 
MX1164/X0/X1/M0 11 Iref 13 vdd3! PE3 L=2e-06 W=6e-06 m=1 
MX1164/X1/X0/M0 11 Iref 13 vdd3! PE3 L=2e-06 W=6e-06 m=1 
MX1164/X1/X1/M0 11 Iref 13 vdd3! PE3 L=2e-06 W=6e-06 m=1 
MX1165/X0/X0/M0 9 Iref 19 vdd3! PE3 L=2e-06 W=6e-06 m=1 
MX1165/X0/X1/M0 10 Iref 16 vdd3! PE3 L=2e-06 W=6e-06 m=1 
MX1165/X1/X0/M0 9 Iref 19 vdd3! PE3 L=2e-06 W=6e-06 m=1 
MX1165/X1/X1/M0 10 Iref 16 vdd3! PE3 L=2e-06 W=6e-06 m=1 
MX1166/X0/X0/M0 9 Iref 19 vdd3! PE3 L=2e-06 W=6e-06 m=1 
MX1166/X0/X1/M0 10 Iref 16 vdd3! PE3 L=2e-06 W=6e-06 m=1 
MX1166/X1/X0/M0 9 Iref 19 vdd3! PE3 L=2e-06 W=6e-06 m=1 
MX1166/X1/X1/M0 10 Iref 16 vdd3! PE3 L=2e-06 W=6e-06 m=1 
MX1167/X0/X0/M0 10 Iref 16 vdd3! PE3 L=2e-06 W=6e-06 m=1 
MX1167/X0/X1/M0 11 Iref 13 vdd3! PE3 L=2e-06 W=6e-06 m=1 
MX1167/X1/X0/M0 11 Iref 13 vdd3! PE3 L=2e-06 W=6e-06 m=1 
MX1167/X1/X1/M0 11 Iref 13 vdd3! PE3 L=2e-06 W=6e-06 m=1 
MX1168/X0/X0/M0 11 Iref 13 vdd3! PE3 L=2e-06 W=6e-06 m=1 
MX1168/X0/X1/M0 11 Iref 13 vdd3! PE3 L=2e-06 W=6e-06 m=1 
MX1168/X1/X0/M0 11 Iref 13 vdd3! PE3 L=2e-06 W=6e-06 m=1 
MX1168/X1/X1/M0 11 Iref 13 vdd3! PE3 L=2e-06 W=6e-06 m=1 
MX1169/X0/X0/M0 9 Iref 19 vdd3! PE3 L=2e-06 W=6e-06 m=1 
MX1169/X0/X1/M0 10 Iref 16 vdd3! PE3 L=2e-06 W=6e-06 m=1 
MX1169/X1/X0/M0 9 Iref 19 vdd3! PE3 L=2e-06 W=6e-06 m=1 
MX1169/X1/X1/M0 10 Iref 16 vdd3! PE3 L=2e-06 W=6e-06 m=1 
MX1170/X0/X0/M0 9 Iref 19 vdd3! PE3 L=2e-06 W=6e-06 m=1 
MX1170/X0/X1/M0 10 Iref 16 vdd3! PE3 L=2e-06 W=6e-06 m=1 
MX1170/X1/X0/M0 9 Iref 19 vdd3! PE3 L=2e-06 W=6e-06 m=1 
MX1170/X1/X1/M0 10 Iref 16 vdd3! PE3 L=2e-06 W=6e-06 m=1 
MX1171/X0/X0/M0 11 Iref 13 vdd3! PE3 L=2e-06 W=6e-06 m=1 
MX1171/X0/X1/M0 11 Iref 13 vdd3! PE3 L=2e-06 W=6e-06 m=1 
MX1171/X1/X0/M0 11 Iref 13 vdd3! PE3 L=2e-06 W=6e-06 m=1 
MX1171/X1/X1/M0 11 Iref 13 vdd3! PE3 L=2e-06 W=6e-06 m=1 
MX1172/X0/X0/M0 11 Iref 13 vdd3! PE3 L=2e-06 W=6e-06 m=1 
MX1172/X0/X1/M0 11 Iref 13 vdd3! PE3 L=2e-06 W=6e-06 m=1 
MX1172/X1/X0/M0 11 Iref 13 vdd3! PE3 L=2e-06 W=6e-06 m=1 
MX1172/X1/X1/M0 11 Iref 13 vdd3! PE3 L=2e-06 W=6e-06 m=1 
MX1173/X0/X0/M0 11 Iref 13 vdd3! PE3 L=2e-06 W=6e-06 m=1 
MX1173/X0/X1/M0 10 Iref 16 vdd3! PE3 L=2e-06 W=6e-06 m=1 
MX1173/X1/X0/M0 11 Iref 13 vdd3! PE3 L=2e-06 W=6e-06 m=1 
MX1173/X1/X1/M0 10 Iref 16 vdd3! PE3 L=2e-06 W=6e-06 m=1 
MX1174/X0/X0/M0 11 Iref 13 vdd3! PE3 L=2e-06 W=6e-06 m=1 
MX1174/X0/X1/M0 10 Iref 16 vdd3! PE3 L=2e-06 W=6e-06 m=1 
MX1174/X1/X0/M0 11 Iref 13 vdd3! PE3 L=2e-06 W=6e-06 m=1 
MX1174/X1/X1/M0 10 Iref 16 vdd3! PE3 L=2e-06 W=6e-06 m=1 
MX1175/X0/X0/M0 11 Iref 13 vdd3! PE3 L=2e-06 W=6e-06 m=1 
MX1175/X0/X1/M0 11 Iref 13 vdd3! PE3 L=2e-06 W=6e-06 m=1 
MX1175/X1/X0/M0 11 Iref 13 vdd3! PE3 L=2e-06 W=6e-06 m=1 
MX1175/X1/X1/M0 11 Iref 13 vdd3! PE3 L=2e-06 W=6e-06 m=1 
MX1176/X0/X0/X0/M0 13 15 vdd3! vdd3! PE3 L=2e-06 W=6e-06 m=1 
MX1176/X0/X0/X1/M0 13 15 vdd3! vdd3! PE3 L=2e-06 W=6e-06 m=1 
MX1176/X0/X1/X0/M0 13 15 vdd3! vdd3! PE3 L=2e-06 W=6e-06 m=1 
MX1176/X0/X1/X1/M0 13 15 vdd3! vdd3! PE3 L=2e-06 W=6e-06 m=1 
MX1176/X1/X0/X0/M0 17 15 vdd3! vdd3! PE3 L=2e-06 W=6e-06 m=1 
MX1176/X1/X0/X1/M0 16 15 vdd3! vdd3! PE3 L=2e-06 W=6e-06 m=1 
MX1176/X1/X1/X0/M0 18 15 vdd3! vdd3! PE3 L=2e-06 W=6e-06 m=1 
MX1176/X1/X1/X1/M0 18 15 vdd3! vdd3! PE3 L=2e-06 W=6e-06 m=1 
MX1177/X0/X0/X0/M0 16 15 vdd3! vdd3! PE3 L=2e-06 W=6e-06 m=1 
MX1177/X0/X0/X1/M0 19 15 vdd3! vdd3! PE3 L=2e-06 W=6e-06 m=1 
MX1177/X0/X1/X0/M0 16 15 vdd3! vdd3! PE3 L=2e-06 W=6e-06 m=1 
MX1177/X0/X1/X1/M0 19 15 vdd3! vdd3! PE3 L=2e-06 W=6e-06 m=1 
MX1177/X1/X0/X0/M0 18 15 vdd3! vdd3! PE3 L=2e-06 W=6e-06 m=1 
MX1177/X1/X0/X1/M0 19 15 vdd3! vdd3! PE3 L=2e-06 W=6e-06 m=1 
MX1177/X1/X1/X0/M0 15 15 vdd3! vdd3! PE3 L=2e-06 W=6e-06 m=1 
MX1177/X1/X1/X1/M0 15 15 vdd3! vdd3! PE3 L=2e-06 W=6e-06 m=1 
MX1178/X0/X0/X0/M0 16 15 vdd3! vdd3! PE3 L=2e-06 W=6e-06 m=1 
MX1178/X0/X0/X1/M0 19 15 vdd3! vdd3! PE3 L=2e-06 W=6e-06 m=1 
MX1178/X0/X1/X0/M0 16 15 vdd3! vdd3! PE3 L=2e-06 W=6e-06 m=1 
MX1178/X0/X1/X1/M0 19 15 vdd3! vdd3! PE3 L=2e-06 W=6e-06 m=1 
MX1178/X1/X0/X0/M0 18 15 vdd3! vdd3! PE3 L=2e-06 W=6e-06 m=1 
MX1178/X1/X0/X1/M0 19 15 vdd3! vdd3! PE3 L=2e-06 W=6e-06 m=1 
MX1178/X1/X1/X0/M0 15 15 vdd3! vdd3! PE3 L=2e-06 W=6e-06 m=1 
MX1178/X1/X1/X1/M0 15 15 vdd3! vdd3! PE3 L=2e-06 W=6e-06 m=1 
MX1179/X0/X0/X0/M0 13 15 vdd3! vdd3! PE3 L=2e-06 W=6e-06 m=1 
MX1179/X0/X0/X1/M0 13 15 vdd3! vdd3! PE3 L=2e-06 W=6e-06 m=1 
MX1179/X0/X1/X0/M0 13 15 vdd3! vdd3! PE3 L=2e-06 W=6e-06 m=1 
MX1179/X0/X1/X1/M0 13 15 vdd3! vdd3! PE3 L=2e-06 W=6e-06 m=1 
MX1179/X1/X0/X0/M0 17 15 vdd3! vdd3! PE3 L=2e-06 W=6e-06 m=1 
MX1179/X1/X0/X1/M0 16 15 vdd3! vdd3! PE3 L=2e-06 W=6e-06 m=1 
MX1179/X1/X1/X0/M0 18 15 vdd3! vdd3! PE3 L=2e-06 W=6e-06 m=1 
MX1179/X1/X1/X1/M0 18 15 vdd3! vdd3! PE3 L=2e-06 W=6e-06 m=1 
MX1180/X0/X0/X0/M0 13 15 vdd3! vdd3! PE3 L=2e-06 W=6e-06 m=1 
MX1180/X0/X0/X1/M0 13 15 vdd3! vdd3! PE3 L=2e-06 W=6e-06 m=1 
MX1180/X0/X1/X0/M0 13 15 vdd3! vdd3! PE3 L=2e-06 W=6e-06 m=1 
MX1180/X0/X1/X1/M0 13 15 vdd3! vdd3! PE3 L=2e-06 W=6e-06 m=1 
MX1180/X1/X0/X0/M0 13 15 vdd3! vdd3! PE3 L=2e-06 W=6e-06 m=1 
MX1180/X1/X0/X1/M0 13 15 vdd3! vdd3! PE3 L=2e-06 W=6e-06 m=1 
MX1180/X1/X1/X0/M0 13 15 vdd3! vdd3! PE3 L=2e-06 W=6e-06 m=1 
MX1180/X1/X1/X1/M0 13 15 vdd3! vdd3! PE3 L=2e-06 W=6e-06 m=1 
MX1181/X0/X0/X0/M0 16 15 vdd3! vdd3! PE3 L=2e-06 W=6e-06 m=1 
MX1181/X0/X0/X1/M0 13 15 vdd3! vdd3! PE3 L=2e-06 W=6e-06 m=1 
MX1181/X0/X1/X0/M0 16 15 vdd3! vdd3! PE3 L=2e-06 W=6e-06 m=1 
MX1181/X0/X1/X1/M0 13 15 vdd3! vdd3! PE3 L=2e-06 W=6e-06 m=1 
MX1181/X1/X0/X0/M0 16 15 vdd3! vdd3! PE3 L=2e-06 W=6e-06 m=1 
MX1181/X1/X0/X1/M0 13 15 vdd3! vdd3! PE3 L=2e-06 W=6e-06 m=1 
MX1181/X1/X1/X0/M0 16 15 vdd3! vdd3! PE3 L=2e-06 W=6e-06 m=1 
MX1181/X1/X1/X1/M0 19 15 vdd3! vdd3! PE3 L=2e-06 W=6e-06 m=1 
MX1182/X0/X0/X0/M0 16 15 vdd3! vdd3! PE3 L=2e-06 W=6e-06 m=1 
MX1182/X0/X0/X1/M0 13 15 vdd3! vdd3! PE3 L=2e-06 W=6e-06 m=1 
MX1182/X0/X1/X0/M0 16 15 vdd3! vdd3! PE3 L=2e-06 W=6e-06 m=1 
MX1182/X0/X1/X1/M0 13 15 vdd3! vdd3! PE3 L=2e-06 W=6e-06 m=1 
MX1182/X1/X0/X0/M0 16 15 vdd3! vdd3! PE3 L=2e-06 W=6e-06 m=1 
MX1182/X1/X0/X1/M0 13 15 vdd3! vdd3! PE3 L=2e-06 W=6e-06 m=1 
MX1182/X1/X1/X0/M0 16 15 vdd3! vdd3! PE3 L=2e-06 W=6e-06 m=1 
MX1182/X1/X1/X1/M0 19 15 vdd3! vdd3! PE3 L=2e-06 W=6e-06 m=1 
MX1183/X0/X0/X0/M0 13 15 vdd3! vdd3! PE3 L=2e-06 W=6e-06 m=1 
MX1183/X0/X0/X1/M0 13 15 vdd3! vdd3! PE3 L=2e-06 W=6e-06 m=1 
MX1183/X0/X1/X0/M0 13 15 vdd3! vdd3! PE3 L=2e-06 W=6e-06 m=1 
MX1183/X0/X1/X1/M0 13 15 vdd3! vdd3! PE3 L=2e-06 W=6e-06 m=1 
MX1183/X1/X0/X0/M0 13 15 vdd3! vdd3! PE3 L=2e-06 W=6e-06 m=1 
MX1183/X1/X0/X1/M0 13 15 vdd3! vdd3! PE3 L=2e-06 W=6e-06 m=1 
MX1183/X1/X1/X0/M0 13 15 vdd3! vdd3! PE3 L=2e-06 W=6e-06 m=1 
MX1183/X1/X1/X1/M0 13 15 vdd3! vdd3! PE3 L=2e-06 W=6e-06 m=1 
MX1184/X0/X0/X0/X0/M0 vdd3! vdd3! vdd3! vdd3! PE3 L=2e-06 W=6e-06 m=1 
MX1184/X0/X0/X0/X1/M0 13 15 vdd3! vdd3! PE3 L=2e-06 W=6e-06 m=1 
MX1184/X0/X0/X1/X0/M0 13 15 vdd3! vdd3! PE3 L=2e-06 W=6e-06 m=1 
MX1184/X0/X0/X1/X1/M0 13 15 vdd3! vdd3! PE3 L=2e-06 W=6e-06 m=1 
MX1184/X0/X1/X0/X0/M0 13 15 vdd3! vdd3! PE3 L=2e-06 W=6e-06 m=1 
MX1184/X0/X1/X0/X1/M0 13 15 vdd3! vdd3! PE3 L=2e-06 W=6e-06 m=1 
MX1184/X0/X1/X1/X0/M0 13 15 vdd3! vdd3! PE3 L=2e-06 W=6e-06 m=1 
MX1184/X0/X1/X1/X1/M0 13 15 vdd3! vdd3! PE3 L=2e-06 W=6e-06 m=1 
MX1184/X1/X0/X0/X0/M0 13 15 vdd3! vdd3! PE3 L=2e-06 W=6e-06 m=1 
MX1184/X1/X0/X0/X1/M0 13 15 vdd3! vdd3! PE3 L=2e-06 W=6e-06 m=1 
MX1184/X1/X0/X1/X0/M0 13 15 vdd3! vdd3! PE3 L=2e-06 W=6e-06 m=1 
MX1184/X1/X0/X1/X1/M0 13 15 vdd3! vdd3! PE3 L=2e-06 W=6e-06 m=1 
MX1184/X1/X1/X0/X0/M0 13 15 vdd3! vdd3! PE3 L=2e-06 W=6e-06 m=1 
MX1184/X1/X1/X0/X1/M0 13 15 vdd3! vdd3! PE3 L=2e-06 W=6e-06 m=1 
MX1184/X1/X1/X1/X0/M0 16 15 vdd3! vdd3! PE3 L=2e-06 W=6e-06 m=1 
MX1184/X1/X1/X1/X1/M0 17 15 vdd3! vdd3! PE3 L=2e-06 W=6e-06 m=1 
MX1185/X0/X0/X0/X0/M0 vdd3! vdd3! vdd3! vdd3! PE3 L=2e-06 W=6e-06 m=1 
MX1185/X0/X0/X0/X1/M0 16 15 vdd3! vdd3! PE3 L=2e-06 W=6e-06 m=1 
MX1185/X0/X0/X1/X0/M0 13 15 vdd3! vdd3! PE3 L=2e-06 W=6e-06 m=1 
MX1185/X0/X0/X1/X1/M0 16 15 vdd3! vdd3! PE3 L=2e-06 W=6e-06 m=1 
MX1185/X0/X1/X0/X0/M0 13 15 vdd3! vdd3! PE3 L=2e-06 W=6e-06 m=1 
MX1185/X0/X1/X0/X1/M0 16 15 vdd3! vdd3! PE3 L=2e-06 W=6e-06 m=1 
MX1185/X0/X1/X1/X0/M0 13 15 vdd3! vdd3! PE3 L=2e-06 W=6e-06 m=1 
MX1185/X0/X1/X1/X1/M0 16 15 vdd3! vdd3! PE3 L=2e-06 W=6e-06 m=1 
MX1185/X1/X0/X0/X0/M0 19 15 vdd3! vdd3! PE3 L=2e-06 W=6e-06 m=1 
MX1185/X1/X0/X0/X1/M0 16 15 vdd3! vdd3! PE3 L=2e-06 W=6e-06 m=1 
MX1185/X1/X0/X1/X0/M0 19 15 vdd3! vdd3! PE3 L=2e-06 W=6e-06 m=1 
MX1185/X1/X0/X1/X1/M0 16 15 vdd3! vdd3! PE3 L=2e-06 W=6e-06 m=1 
MX1185/X1/X1/X0/X0/M0 19 15 vdd3! vdd3! PE3 L=2e-06 W=6e-06 m=1 
MX1185/X1/X1/X0/X1/M0 16 15 vdd3! vdd3! PE3 L=2e-06 W=6e-06 m=1 
MX1185/X1/X1/X1/X0/M0 19 15 vdd3! vdd3! PE3 L=2e-06 W=6e-06 m=1 
MX1185/X1/X1/X1/X1/M0 18 15 vdd3! vdd3! PE3 L=2e-06 W=6e-06 m=1 
MX1186/X0/X0/X0/X0/M0 vdd3! vdd3! vdd3! vdd3! PE3 L=2e-06 W=6e-06 m=1 
MX1186/X0/X0/X0/X1/M0 16 15 vdd3! vdd3! PE3 L=2e-06 W=6e-06 m=1 
MX1186/X0/X0/X1/X0/M0 13 15 vdd3! vdd3! PE3 L=2e-06 W=6e-06 m=1 
MX1186/X0/X0/X1/X1/M0 16 15 vdd3! vdd3! PE3 L=2e-06 W=6e-06 m=1 
MX1186/X0/X1/X0/X0/M0 13 15 vdd3! vdd3! PE3 L=2e-06 W=6e-06 m=1 
MX1186/X0/X1/X0/X1/M0 16 15 vdd3! vdd3! PE3 L=2e-06 W=6e-06 m=1 
MX1186/X0/X1/X1/X0/M0 13 15 vdd3! vdd3! PE3 L=2e-06 W=6e-06 m=1 
MX1186/X0/X1/X1/X1/M0 16 15 vdd3! vdd3! PE3 L=2e-06 W=6e-06 m=1 
MX1186/X1/X0/X0/X0/M0 19 15 vdd3! vdd3! PE3 L=2e-06 W=6e-06 m=1 
MX1186/X1/X0/X0/X1/M0 16 15 vdd3! vdd3! PE3 L=2e-06 W=6e-06 m=1 
MX1186/X1/X0/X1/X0/M0 19 15 vdd3! vdd3! PE3 L=2e-06 W=6e-06 m=1 
MX1186/X1/X0/X1/X1/M0 16 15 vdd3! vdd3! PE3 L=2e-06 W=6e-06 m=1 
MX1186/X1/X1/X0/X0/M0 19 15 vdd3! vdd3! PE3 L=2e-06 W=6e-06 m=1 
MX1186/X1/X1/X0/X1/M0 16 15 vdd3! vdd3! PE3 L=2e-06 W=6e-06 m=1 
MX1186/X1/X1/X1/X0/M0 19 15 vdd3! vdd3! PE3 L=2e-06 W=6e-06 m=1 
MX1186/X1/X1/X1/X1/M0 18 15 vdd3! vdd3! PE3 L=2e-06 W=6e-06 m=1 
MX1187/X0/X0/X0/X0/M0 vdd3! vdd3! vdd3! vdd3! PE3 L=2e-06 W=6e-06 m=1 
MX1187/X0/X0/X0/X1/M0 13 15 vdd3! vdd3! PE3 L=2e-06 W=6e-06 m=1 
MX1187/X0/X0/X1/X0/M0 13 15 vdd3! vdd3! PE3 L=2e-06 W=6e-06 m=1 
MX1187/X0/X0/X1/X1/M0 13 15 vdd3! vdd3! PE3 L=2e-06 W=6e-06 m=1 
MX1187/X0/X1/X0/X0/M0 13 15 vdd3! vdd3! PE3 L=2e-06 W=6e-06 m=1 
MX1187/X0/X1/X0/X1/M0 13 15 vdd3! vdd3! PE3 L=2e-06 W=6e-06 m=1 
MX1187/X0/X1/X1/X0/M0 13 15 vdd3! vdd3! PE3 L=2e-06 W=6e-06 m=1 
MX1187/X0/X1/X1/X1/M0 13 15 vdd3! vdd3! PE3 L=2e-06 W=6e-06 m=1 
MX1187/X1/X0/X0/X0/M0 13 15 vdd3! vdd3! PE3 L=2e-06 W=6e-06 m=1 
MX1187/X1/X0/X0/X1/M0 13 15 vdd3! vdd3! PE3 L=2e-06 W=6e-06 m=1 
MX1187/X1/X0/X1/X0/M0 13 15 vdd3! vdd3! PE3 L=2e-06 W=6e-06 m=1 
MX1187/X1/X0/X1/X1/M0 13 15 vdd3! vdd3! PE3 L=2e-06 W=6e-06 m=1 
MX1187/X1/X1/X0/X0/M0 13 15 vdd3! vdd3! PE3 L=2e-06 W=6e-06 m=1 
MX1187/X1/X1/X0/X1/M0 13 15 vdd3! vdd3! PE3 L=2e-06 W=6e-06 m=1 
MX1187/X1/X1/X1/X0/M0 16 15 vdd3! vdd3! PE3 L=2e-06 W=6e-06 m=1 
MX1187/X1/X1/X1/X1/M0 17 15 vdd3! vdd3! PE3 L=2e-06 W=6e-06 m=1 
MX1188/X0/X0/X0/X0/M0 11 Iref 13 vdd3! PE3 L=2e-06 W=6e-06 m=1 
MX1188/X0/X0/X0/X1/M0 11 Iref 13 vdd3! PE3 L=2e-06 W=6e-06 m=1 
MX1188/X0/X0/X1/X0/M0 11 Iref 13 vdd3! PE3 L=2e-06 W=6e-06 m=1 
MX1188/X0/X0/X1/X1/M0 11 Iref 13 vdd3! PE3 L=2e-06 W=6e-06 m=1 
MX1188/X0/X1/X0/X0/M0 11 Iref 13 vdd3! PE3 L=2e-06 W=6e-06 m=1 
MX1188/X0/X1/X0/X1/M0 11 Iref 13 vdd3! PE3 L=2e-06 W=6e-06 m=1 
MX1188/X0/X1/X1/X0/M0 11 Iref 13 vdd3! PE3 L=2e-06 W=6e-06 m=1 
MX1188/X0/X1/X1/X1/M0 11 Iref 13 vdd3! PE3 L=2e-06 W=6e-06 m=1 
MX1188/X1/X0/X0/X0/M0 11 Iref 13 vdd3! PE3 L=2e-06 W=6e-06 m=1 
MX1188/X1/X0/X0/X1/M0 11 Iref 13 vdd3! PE3 L=2e-06 W=6e-06 m=1 
MX1188/X1/X0/X1/X0/M0 11 Iref 13 vdd3! PE3 L=2e-06 W=6e-06 m=1 
MX1188/X1/X0/X1/X1/M0 11 Iref 13 vdd3! PE3 L=2e-06 W=6e-06 m=1 
MX1188/X1/X1/X0/X0/M0 11 Iref 13 vdd3! PE3 L=2e-06 W=6e-06 m=1 
MX1188/X1/X1/X0/X1/M0 10 Iref 16 vdd3! PE3 L=2e-06 W=6e-06 m=1 
MX1188/X1/X1/X1/X0/M0 7 Iref 17 vdd3! PE3 L=2e-06 W=6e-06 m=1 
MX1188/X1/X1/X1/X1/M0 8 Iref 18 vdd3! PE3 L=2e-06 W=6e-06 m=1 
MX1189/X0/X0/X0/X0/M0 10 Iref 16 vdd3! PE3 L=2e-06 W=6e-06 m=1 
MX1189/X0/X0/X0/X1/M0 11 Iref 13 vdd3! PE3 L=2e-06 W=6e-06 m=1 
MX1189/X0/X0/X1/X0/M0 10 Iref 16 vdd3! PE3 L=2e-06 W=6e-06 m=1 
MX1189/X0/X0/X1/X1/M0 11 Iref 13 vdd3! PE3 L=2e-06 W=6e-06 m=1 
MX1189/X0/X1/X0/X0/M0 10 Iref 16 vdd3! PE3 L=2e-06 W=6e-06 m=1 
MX1189/X0/X1/X0/X1/M0 11 Iref 13 vdd3! PE3 L=2e-06 W=6e-06 m=1 
MX1189/X0/X1/X1/X0/M0 10 Iref 16 vdd3! PE3 L=2e-06 W=6e-06 m=1 
MX1189/X0/X1/X1/X1/M0 9 Iref 19 vdd3! PE3 L=2e-06 W=6e-06 m=1 
MX1189/X1/X0/X0/X0/M0 10 Iref 16 vdd3! PE3 L=2e-06 W=6e-06 m=1 
MX1189/X1/X0/X0/X1/M0 9 Iref 19 vdd3! PE3 L=2e-06 W=6e-06 m=1 
MX1189/X1/X0/X1/X0/M0 10 Iref 16 vdd3! PE3 L=2e-06 W=6e-06 m=1 
MX1189/X1/X0/X1/X1/M0 9 Iref 19 vdd3! PE3 L=2e-06 W=6e-06 m=1 
MX1189/X1/X1/X0/X0/M0 10 Iref 16 vdd3! PE3 L=2e-06 W=6e-06 m=1 
MX1189/X1/X1/X0/X1/M0 9 Iref 19 vdd3! PE3 L=2e-06 W=6e-06 m=1 
MX1189/X1/X1/X1/X0/M0 8 Iref 18 vdd3! PE3 L=2e-06 W=6e-06 m=1 
MX1189/X1/X1/X1/X1/M0 Iref Iref 15 vdd3! PE3 L=2e-06 W=6e-06 m=1 
MX1190/X0/X0/X0/X0/M0 10 Iref 16 vdd3! PE3 L=2e-06 W=6e-06 m=1 
MX1190/X0/X0/X0/X1/M0 11 Iref 13 vdd3! PE3 L=2e-06 W=6e-06 m=1 
MX1190/X0/X0/X1/X0/M0 10 Iref 16 vdd3! PE3 L=2e-06 W=6e-06 m=1 
MX1190/X0/X0/X1/X1/M0 11 Iref 13 vdd3! PE3 L=2e-06 W=6e-06 m=1 
MX1190/X0/X1/X0/X0/M0 10 Iref 16 vdd3! PE3 L=2e-06 W=6e-06 m=1 
MX1190/X0/X1/X0/X1/M0 11 Iref 13 vdd3! PE3 L=2e-06 W=6e-06 m=1 
MX1190/X0/X1/X1/X0/M0 10 Iref 16 vdd3! PE3 L=2e-06 W=6e-06 m=1 
MX1190/X0/X1/X1/X1/M0 9 Iref 19 vdd3! PE3 L=2e-06 W=6e-06 m=1 
MX1190/X1/X0/X0/X0/M0 10 Iref 16 vdd3! PE3 L=2e-06 W=6e-06 m=1 
MX1190/X1/X0/X0/X1/M0 9 Iref 19 vdd3! PE3 L=2e-06 W=6e-06 m=1 
MX1190/X1/X0/X1/X0/M0 10 Iref 16 vdd3! PE3 L=2e-06 W=6e-06 m=1 
MX1190/X1/X0/X1/X1/M0 9 Iref 19 vdd3! PE3 L=2e-06 W=6e-06 m=1 
MX1190/X1/X1/X0/X0/M0 10 Iref 16 vdd3! PE3 L=2e-06 W=6e-06 m=1 
MX1190/X1/X1/X0/X1/M0 9 Iref 19 vdd3! PE3 L=2e-06 W=6e-06 m=1 
MX1190/X1/X1/X1/X0/M0 8 Iref 18 vdd3! PE3 L=2e-06 W=6e-06 m=1 
MX1190/X1/X1/X1/X1/M0 Iref Iref 15 vdd3! PE3 L=2e-06 W=6e-06 m=1 
MX1191/X0/X0/X0/X0/M0 11 Iref 13 vdd3! PE3 L=2e-06 W=6e-06 m=1 
MX1191/X0/X0/X0/X1/M0 11 Iref 13 vdd3! PE3 L=2e-06 W=6e-06 m=1 
MX1191/X0/X0/X1/X0/M0 11 Iref 13 vdd3! PE3 L=2e-06 W=6e-06 m=1 
MX1191/X0/X0/X1/X1/M0 11 Iref 13 vdd3! PE3 L=2e-06 W=6e-06 m=1 
MX1191/X0/X1/X0/X0/M0 11 Iref 13 vdd3! PE3 L=2e-06 W=6e-06 m=1 
MX1191/X0/X1/X0/X1/M0 11 Iref 13 vdd3! PE3 L=2e-06 W=6e-06 m=1 
MX1191/X0/X1/X1/X0/M0 11 Iref 13 vdd3! PE3 L=2e-06 W=6e-06 m=1 
MX1191/X0/X1/X1/X1/M0 11 Iref 13 vdd3! PE3 L=2e-06 W=6e-06 m=1 
MX1191/X1/X0/X0/X0/M0 11 Iref 13 vdd3! PE3 L=2e-06 W=6e-06 m=1 
MX1191/X1/X0/X0/X1/M0 11 Iref 13 vdd3! PE3 L=2e-06 W=6e-06 m=1 
MX1191/X1/X0/X1/X0/M0 11 Iref 13 vdd3! PE3 L=2e-06 W=6e-06 m=1 
MX1191/X1/X0/X1/X1/M0 11 Iref 13 vdd3! PE3 L=2e-06 W=6e-06 m=1 
MX1191/X1/X1/X0/X0/M0 11 Iref 13 vdd3! PE3 L=2e-06 W=6e-06 m=1 
MX1191/X1/X1/X0/X1/M0 10 Iref 16 vdd3! PE3 L=2e-06 W=6e-06 m=1 
MX1191/X1/X1/X1/X0/M0 7 Iref 17 vdd3! PE3 L=2e-06 W=6e-06 m=1 
MX1191/X1/X1/X1/X1/M0 8 Iref 18 vdd3! PE3 L=2e-06 W=6e-06 m=1 
.ends


