// Generated for: spectre
// Generated on: Mar 15 15:13:05 2021
// Design library name: Stimulator_TestBench
// Design cell name: LS_LowSide_V2_ST
// Design view name: schematic
simulator lang=spectre
global 0 vdd3! vdde!
