simulator lang=spectre
include "ne3.scs"
include "nedia_bjt.scs"
include "pe3.scs"
include "rpp1k1.scs"
