// Generated for: spectre
// Generated on: Apr  8 12:43:56 2021
// Design library name: Stimulator_TestBench
// Design cell name: TB_LS_HighSide_imp
// Design view name: schematic
simulator lang=spectre
global 0 vdd3! vdde!
