// Generated for: spectre
// Generated on: Apr  1 14:05:42 2021
// Design library name: Stimulator_TestBench
// Design cell name: TB_OneChannel_imp
// Design view name: config
simulator lang=spectre binding=vlog  
global 0 vdd3! vdde! vdd!
