// Generated for: spectre
// Generated on: Apr 30 15:39:11 2021
// Design library name: Stimulator_TestBench
// Design cell name: TB_OneChannel_imp
// Design view name: config
simulator lang=spectre binding=vlog  
global 0 vdd3! vdde! vdd!
