// Generated for: spectre
// Generated on: Sep 22 15:20:55 2020
// Design library name: EMG_202009
// Design cell name: TB_Single_Channel
// Design view name: config
simulator lang=spectre
global 0
