// Generated for: spectre
// Generated on: Mar 25 16:12:53 2021
// Design library name: Stimulator_TestBench
// Design cell name: TB_Iref_imp
// Design view name: schematic
simulator lang=spectre
global 0
