// Generated for: spectre
// Generated on: Oct 14 14:51:47 2020
// Design library name: EMG_202009
// Design cell name: TB_SwitchArray
// Design view name: config
simulator lang=spectre binding=vlog  
global 0
