// Generated for: spectre
// Generated on: Mar  8 11:31:33 2021
// Design library name: Stimulator_IMP
// Design cell name: LS_HighSide_ST
// Design view name: schematic
simulator lang=spectre
global 0
include "/pkg/xfab/XKIT/xh018/cadence/v8_0/spectre/v8_0_1/lpmos/config.scs" section=default
include "/pkg/xfab/XKIT/xh018/cadence/v8_0/spectre/v8_0_1/lpmos/param.scs" section=3s
include "/pkg/xfab/XKIT/xh018/cadence/v8_0/spectre/v8_0_1/lpmos/bip.scs" section=tm
include "/pkg/xfab/XKIT/xh018/cadence/v8_0/spectre/v8_0_1/lpmos/cap.scs" section=tm
include "/pkg/xfab/XKIT/xh018/cadence/v8_0/spectre/v8_0_1/lpmos/dio.scs" section=tm
include "/pkg/xfab/XKIT/xh018/cadence/v8_0/spectre/v8_0_1/lpmos/mos.scs" section=tm
include "/pkg/xfab/XKIT/xh018/cadence/v8_0/spectre/v8_0_1/lpmos/photo.scs" section=tm
include "/pkg/xfab/XKIT/xh018/cadence/v8_0/spectre/v8_0_1/lpmos/res.scs" section=tm

// Library name: Stimulator_IMP
// Cell name: INV_ST
// View name: schematic
subckt INV_ST in out vddd vss
parameters W=2u
    M0 (out in vss vss) ne w=W l=180.0n as=4.8e-07*(W) ad=4.8e-07*(W) \
        ps=1*2*(4.8e-07+(W)) pd=2*(4.8e-07+(W)) nrs=2.7e-07/(W) \
        nrd=2.7e-07/(W) m=(1)*(1) par1=((1)*(1)) xf_subext=0
    M1 (out in vddd vddd) pe w=W*2 l=180.0n as=4.8e-07*(W*2) \
        ad=4.8e-07*(W*2) ps=1*2*(4.8e-07+(W*2)) pd=2*(4.8e-07+(W*2)) \
        nrs=2.7e-07/(W*2) nrd=2.7e-07/(W*2) m=(1)*(1) par1=((1)*(1))
ends INV_ST
// End of subcircuit definition.

// Library name: Stimulator_IMP
// Cell name: INV3_ST
// View name: schematic
subckt INV3_ST in out vdd3 vss
parameters W=2u
    M1 (out in vdd3 vdd3) pe3 w=2*W l=300n as=4.8e-07*(2*W) \
        ad=4.8e-07*(2*W) ps=1*2*(4.8e-07+(2*W)) pd=2*(4.8e-07+(2*W)) \
        nrs=2.7e-07/(2*W) nrd=2.7e-07/(2*W) m=(1)*(1) par1=((1)*(1))
    M0 (out in vss vss) ne3 w=W l=350.0n as=4.8e-07*(W) ad=4.8e-07*(W) \
        ps=1*2*(4.8e-07+(W)) pd=2*(4.8e-07+(W)) nrs=2.7e-07/(W) \
        nrd=2.7e-07/(W) m=(1)*(1) par1=((1)*(1)) xf_subext=0
ends INV3_ST
// End of subcircuit definition.

// Library name: Stimulator_IMP
// Cell name: LS_HighSide_ST
// View name: schematic
I3 (in net40 vddd 0) INV_ST W=2u
I8 (IN INN vdd3 0) INV3_ST W=2u
I1 (net40 IN vdd3 0) INV3_ST W=2u
V6 (vddh 0) vsource dc=40 type=dc
V5 (vmidM 0) vsource dc=20 type=dc
V4 (vmidL 0) vsource dc=10 type=dc
V3 (vmidH 0) vsource dc=30 type=dc
V1 (vddd 0) vsource dc=1.8 type=dc
V0 (vdd3 0) vsource dc=3.3 type=dc
V2 (in 0) vsource type=pulse val0=0 val1=1.8 period=100u delay=50u rise=1p \
        fall=1p width=50u
M9 (net039 vmidH net019 net019) nmma_bjt w=5u l=2.9u as=1.0841e-11 \
        ad=1.0841e-11 ps=1.542e-05 pd=1.542e-05 nrs=0.12 nrd=0.12 \
        m=(1)*(1) par1=((1)*(1)) xf_subext=0
M8 (net040 vmidH net028 net028) nmma_bjt w=5u l=2.9u as=1.0841e-11 \
        ad=1.0841e-11 ps=1.542e-05 pd=1.542e-05 nrs=0.12 nrd=0.12 \
        m=(1)*(1) par1=((1)*(1)) xf_subext=0
M7 (net033 vmidM net022 net022) nmma_bjt w=5u l=2.9u as=1.0841e-11 \
        ad=1.0841e-11 ps=1.542e-05 pd=1.542e-05 nrs=0.12 nrd=0.12 \
        m=(1)*(1) par1=((1)*(1)) xf_subext=0
M6 (net032 vmidM net015 net015) nmma_bjt w=5u l=2.9u as=1.0841e-11 \
        ad=1.0841e-11 ps=1.542e-05 pd=1.542e-05 nrs=0.12 nrd=0.12 \
        m=(1)*(1) par1=((1)*(1)) xf_subext=0
M5 (net026 vmidL net09 net09) nmma_bjt w=5u l=2.9u as=1.0841e-11 \
        ad=1.0841e-11 ps=1.542e-05 pd=1.542e-05 nrs=0.12 nrd=0.12 \
        m=(1)*(1) par1=((1)*(1)) xf_subext=0
M4 (net027 vmidL net014 net014) nmma_bjt w=5u l=2.9u as=1.0841e-11 \
        ad=1.0841e-11 ps=1.542e-05 pd=1.542e-05 nrs=0.12 nrd=0.12 \
        m=(1)*(1) par1=((1)*(1)) xf_subext=0
M1 (net09 INN 0 0) nmma_bjt w=10u l=2.9u as=2.0091e-11 ad=1.20546e-11 \
        ps=2.542e-05 pd=1.308e-05 nrs=0.06 nrd=0.06 m=(1)*(2) \
        par1=((1)*(2)) xf_subext=0
M0 (net014 IN 0 0) nmma_bjt w=10u l=2.9u as=2.0091e-11 ad=1.20546e-11 \
        ps=2.542e-05 pd=1.308e-05 nrs=0.06 nrd=0.06 m=(1)*(2) \
        par1=((1)*(2)) xf_subext=0
M17 (net039 vmidH OUT OUT 0) pmma_bjt w=10u l=2.9u as=2.0091e-11 \
        ad=2.0091e-11 ps=2.542e-05 pd=2.542e-05 nrs=0.06 nrd=0.06 \
        m=(1)*(1) par1=((1)*(1))
M16 (net040 vmidH OUTN OUTN 0) pmma_bjt w=10u l=2.9u as=2.0091e-11 \
        ad=2.0091e-11 ps=2.542e-05 pd=2.542e-05 nrs=0.06 nrd=0.06 \
        m=(1)*(1) par1=((1)*(1))
M15 (net033 vmidM net028 net028 0) pmma_bjt w=10u l=2.9u as=2.0091e-11 \
        ad=2.0091e-11 ps=2.542e-05 pd=2.542e-05 nrs=0.06 nrd=0.06 \
        m=(1)*(1) par1=((1)*(1))
M14 (net032 vmidM net019 net019 0) pmma_bjt w=10u l=2.9u as=2.0091e-11 \
        ad=2.0091e-11 ps=2.542e-05 pd=2.542e-05 nrs=0.06 nrd=0.06 \
        m=(1)*(1) par1=((1)*(1))
M13 (net026 vmidL net015 net015 0) pmma_bjt w=10u l=2.9u as=2.0091e-11 \
        ad=2.0091e-11 ps=2.542e-05 pd=2.542e-05 nrs=0.06 nrd=0.06 \
        m=(1)*(1) par1=((1)*(1))
M12 (net027 vmidL net022 net022 0) pmma_bjt w=10u l=2.9u as=2.0091e-11 \
        ad=2.0091e-11 ps=2.542e-05 pd=2.542e-05 nrs=0.06 nrd=0.06 \
        m=(1)*(1) par1=((1)*(1))
M3 (OUTN OUT vddh vddh 0) pmma_bjt w=5u l=2.9u as=1.0841e-11 ad=1.0841e-11 \
        ps=1.542e-05 pd=1.542e-05 nrs=0.12 nrd=0.12 m=(1)*(1) \
        par1=((1)*(1))
M2 (OUT OUTN vddh vddh 0) pmma_bjt w=5u l=2.9u as=1.0841e-11 ad=1.0841e-11 \
        ps=1.542e-05 pd=1.542e-05 nrs=0.12 nrd=0.12 m=(1)*(1) \
        par1=((1)*(1))
simulatorOptions options psfversion="1.1.0" reltol=100e-6 vabstol=1e-6 \
    iabstol=1e-12 temp=27 tnom=27 homotopy=all limit=delta scalem=1.0 \
    scale=1.0 compatible=spice2 gmin=1e-12 rforce=1 maxnotes=5 maxwarns=5 \
    digits=5 cols=80 pivrel=1e-3 sensfile="../psf/sens.output" \
    checklimitdest=psf 
tran tran stop=500u errpreset=conservative write="spectre.ic" \
    writefinal="spectre.fc" annotate=status maxiters=5 
finalTimeOP info what=oppoint where=rawfile
modelParameter info what=models where=rawfile
element info what=inst where=rawfile
outputParameter info what=output where=rawfile
designParamVals info what=parameters where=rawfile
primitives info what=primitives where=rawfile
subckts info what=subckts where=rawfile
saveOptions options save=allpub
