// Generated for: spectre
// Generated on: Mar  8 11:31:33 2021
// Design library name: Stimulator_IMP
// Design cell name: LS_HighSide_ST
// Design view name: schematic
simulator lang=spectre
global 0
