// Generated for: spectre
// Generated on: May  4 16:34:47 2021
// Design library name: Stimulator_TestBench
// Design cell name: TB_Compliance_voltage
// Design view name: schematic
simulator lang=spectre
global 0 vdde! vdd3!
