// Generated for: spectre
// Generated on: Jan 21 14:14:13 2021
// Design library name: Stimulator_TestBench
// Design cell name: TB_Multi_CH
// Design view name: config
simulator lang=spectre binding=vlog  
global 0
