// Generated for: spectre
// Generated on: Feb 22 15:06:23 2021
// Design library name: EMG_TestBench
// Design cell name: TB_EMG_w_SwitchArray
// Design view name: config
simulator lang=spectre binding=vlog  
global 0
