simulator lang=spectre
include "nmma_bjt.scs"
