** Schematic Netlist, pvs precompare
** 

.subckt Idac_5bit_ST_V2 D0_3v D1_3v D2_3v D3_3v D4_3v Idac Iref vdd3! 
MMM1 Iref Iref Vbias vdd3! PE3 W=6e-06 L=2e-06 m=1 
MMM1==2 Iref Iref Vbias vdd3! PE3 W=6e-06 L=2e-06 m=1 
MMM1==3 Iref Iref Vbias vdd3! PE3 W=6e-06 L=2e-06 m=1 
MMM1==4 Iref Iref Vbias vdd3! PE3 W=6e-06 L=2e-06 m=1 
MMM31 Idac D0_3v Ix1 vdd3! PE3 W=2e-06 L=3e-07 m=1 
MMM31==2 Idac D0_3v Ix1 vdd3! PE3 W=2e-06 L=3e-07 m=1 
MMM31==3 Idac D0_3v Ix1 vdd3! PE3 W=2e-06 L=3e-07 m=1 
MMM31==4 Idac D0_3v Ix1 vdd3! PE3 W=2e-06 L=3e-07 m=1 
MMM31==5 Idac D0_3v Ix1 vdd3! PE3 W=2e-06 L=3e-07 m=1 
MMM31==6 Idac D0_3v Ix1 vdd3! PE3 W=2e-06 L=3e-07 m=1 
MMM31==7 Idac D0_3v Ix1 vdd3! PE3 W=2e-06 L=3e-07 m=1 
MMM31==8 Idac D0_3v Ix1 vdd3! PE3 W=2e-06 L=3e-07 m=1 
MMM20 n1 Vbias vdd3! vdd3! PE3 W=6e-06 L=2e-06 m=1 
MMM20==2 n1 Vbias vdd3! vdd3! PE3 W=6e-06 L=2e-06 m=1 
MMM20==3 n1 Vbias vdd3! vdd3! PE3 W=6e-06 L=2e-06 m=1 
MMM20==4 n1 Vbias vdd3! vdd3! PE3 W=6e-06 L=2e-06 m=1 
MMM22 Ix1 Iref n1 vdd3! PE3 W=6e-06 L=2e-06 m=1 
MMM22==2 Ix1 Iref n1 vdd3! PE3 W=6e-06 L=2e-06 m=1 
MMM22==3 Ix1 Iref n1 vdd3! PE3 W=6e-06 L=2e-06 m=1 
MMM22==4 Ix1 Iref n1 vdd3! PE3 W=6e-06 L=2e-06 m=1 
MMM23 n2 Vbias vdd3! vdd3! PE3 W=6e-06 L=2e-06 m=1 
MMM23==2 n2 Vbias vdd3! vdd3! PE3 W=6e-06 L=2e-06 m=1 
MMM23==3 n2 Vbias vdd3! vdd3! PE3 W=6e-06 L=2e-06 m=1 
MMM23==4 n2 Vbias vdd3! vdd3! PE3 W=6e-06 L=2e-06 m=1 
MMM23==5 n2 Vbias vdd3! vdd3! PE3 W=6e-06 L=2e-06 m=1 
MMM23==6 n2 Vbias vdd3! vdd3! PE3 W=6e-06 L=2e-06 m=1 
MMM23==7 n2 Vbias vdd3! vdd3! PE3 W=6e-06 L=2e-06 m=1 
MMM23==8 n2 Vbias vdd3! vdd3! PE3 W=6e-06 L=2e-06 m=1 
MMM24 Ix2 Iref n2 vdd3! PE3 W=6e-06 L=2e-06 m=1 
MMM24==2 Ix2 Iref n2 vdd3! PE3 W=6e-06 L=2e-06 m=1 
MMM24==3 Ix2 Iref n2 vdd3! PE3 W=6e-06 L=2e-06 m=1 
MMM24==4 Ix2 Iref n2 vdd3! PE3 W=6e-06 L=2e-06 m=1 
MMM24==5 Ix2 Iref n2 vdd3! PE3 W=6e-06 L=2e-06 m=1 
MMM24==6 Ix2 Iref n2 vdd3! PE3 W=6e-06 L=2e-06 m=1 
MMM24==7 Ix2 Iref n2 vdd3! PE3 W=6e-06 L=2e-06 m=1 
MMM24==8 Ix2 Iref n2 vdd3! PE3 W=6e-06 L=2e-06 m=1 
MMM25 n3 Vbias vdd3! vdd3! PE3 W=6e-06 L=2e-06 m=1 
MMM25==2 n3 Vbias vdd3! vdd3! PE3 W=6e-06 L=2e-06 m=1 
MMM25==3 n3 Vbias vdd3! vdd3! PE3 W=6e-06 L=2e-06 m=1 
MMM25==4 n3 Vbias vdd3! vdd3! PE3 W=6e-06 L=2e-06 m=1 
MMM25==5 n3 Vbias vdd3! vdd3! PE3 W=6e-06 L=2e-06 m=1 
MMM25==6 n3 Vbias vdd3! vdd3! PE3 W=6e-06 L=2e-06 m=1 
MMM25==7 n3 Vbias vdd3! vdd3! PE3 W=6e-06 L=2e-06 m=1 
MMM25==8 n3 Vbias vdd3! vdd3! PE3 W=6e-06 L=2e-06 m=1 
MMM25==9 n3 Vbias vdd3! vdd3! PE3 W=6e-06 L=2e-06 m=1 
MMM25==10 n3 Vbias vdd3! vdd3! PE3 W=6e-06 L=2e-06 m=1 
MMM25==11 n3 Vbias vdd3! vdd3! PE3 W=6e-06 L=2e-06 m=1 
MMM25==12 n3 Vbias vdd3! vdd3! PE3 W=6e-06 L=2e-06 m=1 
MMM25==13 n3 Vbias vdd3! vdd3! PE3 W=6e-06 L=2e-06 m=1 
MMM25==14 n3 Vbias vdd3! vdd3! PE3 W=6e-06 L=2e-06 m=1 
MMM25==15 n3 Vbias vdd3! vdd3! PE3 W=6e-06 L=2e-06 m=1 
MMM25==16 n3 Vbias vdd3! vdd3! PE3 W=6e-06 L=2e-06 m=1 
MMM29 Ix4 Iref n3 vdd3! PE3 W=6e-06 L=2e-06 m=1 
MMM29==2 Ix4 Iref n3 vdd3! PE3 W=6e-06 L=2e-06 m=1 
MMM29==3 Ix4 Iref n3 vdd3! PE3 W=6e-06 L=2e-06 m=1 
MMM29==4 Ix4 Iref n3 vdd3! PE3 W=6e-06 L=2e-06 m=1 
MMM29==5 Ix4 Iref n3 vdd3! PE3 W=6e-06 L=2e-06 m=1 
MMM29==6 Ix4 Iref n3 vdd3! PE3 W=6e-06 L=2e-06 m=1 
MMM29==7 Ix4 Iref n3 vdd3! PE3 W=6e-06 L=2e-06 m=1 
MMM29==8 Ix4 Iref n3 vdd3! PE3 W=6e-06 L=2e-06 m=1 
MMM29==9 Ix4 Iref n3 vdd3! PE3 W=6e-06 L=2e-06 m=1 
MMM29==10 Ix4 Iref n3 vdd3! PE3 W=6e-06 L=2e-06 m=1 
MMM29==11 Ix4 Iref n3 vdd3! PE3 W=6e-06 L=2e-06 m=1 
MMM29==12 Ix4 Iref n3 vdd3! PE3 W=6e-06 L=2e-06 m=1 
MMM29==13 Ix4 Iref n3 vdd3! PE3 W=6e-06 L=2e-06 m=1 
MMM29==14 Ix4 Iref n3 vdd3! PE3 W=6e-06 L=2e-06 m=1 
MMM29==15 Ix4 Iref n3 vdd3! PE3 W=6e-06 L=2e-06 m=1 
MMM29==16 Ix4 Iref n3 vdd3! PE3 W=6e-06 L=2e-06 m=1 
MMM32 Ix8 Iref n4 vdd3! PE3 W=6e-06 L=2e-06 m=1 
MMM32==2 Ix8 Iref n4 vdd3! PE3 W=6e-06 L=2e-06 m=1 
MMM32==3 Ix8 Iref n4 vdd3! PE3 W=6e-06 L=2e-06 m=1 
MMM32==4 Ix8 Iref n4 vdd3! PE3 W=6e-06 L=2e-06 m=1 
MMM32==5 Ix8 Iref n4 vdd3! PE3 W=6e-06 L=2e-06 m=1 
MMM32==6 Ix8 Iref n4 vdd3! PE3 W=6e-06 L=2e-06 m=1 
MMM32==7 Ix8 Iref n4 vdd3! PE3 W=6e-06 L=2e-06 m=1 
MMM32==8 Ix8 Iref n4 vdd3! PE3 W=6e-06 L=2e-06 m=1 
MMM32==9 Ix8 Iref n4 vdd3! PE3 W=6e-06 L=2e-06 m=1 
MMM32==10 Ix8 Iref n4 vdd3! PE3 W=6e-06 L=2e-06 m=1 
MMM32==11 Ix8 Iref n4 vdd3! PE3 W=6e-06 L=2e-06 m=1 
MMM32==12 Ix8 Iref n4 vdd3! PE3 W=6e-06 L=2e-06 m=1 
MMM32==13 Ix8 Iref n4 vdd3! PE3 W=6e-06 L=2e-06 m=1 
MMM32==14 Ix8 Iref n4 vdd3! PE3 W=6e-06 L=2e-06 m=1 
MMM32==15 Ix8 Iref n4 vdd3! PE3 W=6e-06 L=2e-06 m=1 
MMM32==16 Ix8 Iref n4 vdd3! PE3 W=6e-06 L=2e-06 m=1 
MMM32==17 Ix8 Iref n4 vdd3! PE3 W=6e-06 L=2e-06 m=1 
MMM32==18 Ix8 Iref n4 vdd3! PE3 W=6e-06 L=2e-06 m=1 
MMM32==19 Ix8 Iref n4 vdd3! PE3 W=6e-06 L=2e-06 m=1 
MMM32==20 Ix8 Iref n4 vdd3! PE3 W=6e-06 L=2e-06 m=1 
MMM32==21 Ix8 Iref n4 vdd3! PE3 W=6e-06 L=2e-06 m=1 
MMM32==22 Ix8 Iref n4 vdd3! PE3 W=6e-06 L=2e-06 m=1 
MMM32==23 Ix8 Iref n4 vdd3! PE3 W=6e-06 L=2e-06 m=1 
MMM32==24 Ix8 Iref n4 vdd3! PE3 W=6e-06 L=2e-06 m=1 
MMM32==25 Ix8 Iref n4 vdd3! PE3 W=6e-06 L=2e-06 m=1 
MMM32==26 Ix8 Iref n4 vdd3! PE3 W=6e-06 L=2e-06 m=1 
MMM32==27 Ix8 Iref n4 vdd3! PE3 W=6e-06 L=2e-06 m=1 
MMM32==28 Ix8 Iref n4 vdd3! PE3 W=6e-06 L=2e-06 m=1 
MMM32==29 Ix8 Iref n4 vdd3! PE3 W=6e-06 L=2e-06 m=1 
MMM32==30 Ix8 Iref n4 vdd3! PE3 W=6e-06 L=2e-06 m=1 
MMM32==31 Ix8 Iref n4 vdd3! PE3 W=6e-06 L=2e-06 m=1 
MMM32==32 Ix8 Iref n4 vdd3! PE3 W=6e-06 L=2e-06 m=1 
MMM33 n4 Vbias vdd3! vdd3! PE3 W=6e-06 L=2e-06 m=1 
MMM33==2 n4 Vbias vdd3! vdd3! PE3 W=6e-06 L=2e-06 m=1 
MMM33==3 n4 Vbias vdd3! vdd3! PE3 W=6e-06 L=2e-06 m=1 
MMM33==4 n4 Vbias vdd3! vdd3! PE3 W=6e-06 L=2e-06 m=1 
MMM33==5 n4 Vbias vdd3! vdd3! PE3 W=6e-06 L=2e-06 m=1 
MMM33==6 n4 Vbias vdd3! vdd3! PE3 W=6e-06 L=2e-06 m=1 
MMM33==7 n4 Vbias vdd3! vdd3! PE3 W=6e-06 L=2e-06 m=1 
MMM33==8 n4 Vbias vdd3! vdd3! PE3 W=6e-06 L=2e-06 m=1 
MMM33==9 n4 Vbias vdd3! vdd3! PE3 W=6e-06 L=2e-06 m=1 
MMM33==10 n4 Vbias vdd3! vdd3! PE3 W=6e-06 L=2e-06 m=1 
MMM33==11 n4 Vbias vdd3! vdd3! PE3 W=6e-06 L=2e-06 m=1 
MMM33==12 n4 Vbias vdd3! vdd3! PE3 W=6e-06 L=2e-06 m=1 
MMM33==13 n4 Vbias vdd3! vdd3! PE3 W=6e-06 L=2e-06 m=1 
MMM33==14 n4 Vbias vdd3! vdd3! PE3 W=6e-06 L=2e-06 m=1 
MMM33==15 n4 Vbias vdd3! vdd3! PE3 W=6e-06 L=2e-06 m=1 
MMM33==16 n4 Vbias vdd3! vdd3! PE3 W=6e-06 L=2e-06 m=1 
MMM33==17 n4 Vbias vdd3! vdd3! PE3 W=6e-06 L=2e-06 m=1 
MMM33==18 n4 Vbias vdd3! vdd3! PE3 W=6e-06 L=2e-06 m=1 
MMM33==19 n4 Vbias vdd3! vdd3! PE3 W=6e-06 L=2e-06 m=1 
MMM33==20 n4 Vbias vdd3! vdd3! PE3 W=6e-06 L=2e-06 m=1 
MMM33==21 n4 Vbias vdd3! vdd3! PE3 W=6e-06 L=2e-06 m=1 
MMM33==22 n4 Vbias vdd3! vdd3! PE3 W=6e-06 L=2e-06 m=1 
MMM33==23 n4 Vbias vdd3! vdd3! PE3 W=6e-06 L=2e-06 m=1 
MMM33==24 n4 Vbias vdd3! vdd3! PE3 W=6e-06 L=2e-06 m=1 
MMM33==25 n4 Vbias vdd3! vdd3! PE3 W=6e-06 L=2e-06 m=1 
MMM33==26 n4 Vbias vdd3! vdd3! PE3 W=6e-06 L=2e-06 m=1 
MMM33==27 n4 Vbias vdd3! vdd3! PE3 W=6e-06 L=2e-06 m=1 
MMM33==28 n4 Vbias vdd3! vdd3! PE3 W=6e-06 L=2e-06 m=1 
MMM33==29 n4 Vbias vdd3! vdd3! PE3 W=6e-06 L=2e-06 m=1 
MMM33==30 n4 Vbias vdd3! vdd3! PE3 W=6e-06 L=2e-06 m=1 
MMM33==31 n4 Vbias vdd3! vdd3! PE3 W=6e-06 L=2e-06 m=1 
MMM33==32 n4 Vbias vdd3! vdd3! PE3 W=6e-06 L=2e-06 m=1 
MMM35 n5 Vbias vdd3! vdd3! PE3 W=6e-06 L=2e-06 m=1 
MMM35==2 n5 Vbias vdd3! vdd3! PE3 W=6e-06 L=2e-06 m=1 
MMM35==3 n5 Vbias vdd3! vdd3! PE3 W=6e-06 L=2e-06 m=1 
MMM35==4 n5 Vbias vdd3! vdd3! PE3 W=6e-06 L=2e-06 m=1 
MMM35==5 n5 Vbias vdd3! vdd3! PE3 W=6e-06 L=2e-06 m=1 
MMM35==6 n5 Vbias vdd3! vdd3! PE3 W=6e-06 L=2e-06 m=1 
MMM35==7 n5 Vbias vdd3! vdd3! PE3 W=6e-06 L=2e-06 m=1 
MMM35==8 n5 Vbias vdd3! vdd3! PE3 W=6e-06 L=2e-06 m=1 
MMM35==9 n5 Vbias vdd3! vdd3! PE3 W=6e-06 L=2e-06 m=1 
MMM35==10 n5 Vbias vdd3! vdd3! PE3 W=6e-06 L=2e-06 m=1 
MMM35==11 n5 Vbias vdd3! vdd3! PE3 W=6e-06 L=2e-06 m=1 
MMM35==12 n5 Vbias vdd3! vdd3! PE3 W=6e-06 L=2e-06 m=1 
MMM35==13 n5 Vbias vdd3! vdd3! PE3 W=6e-06 L=2e-06 m=1 
MMM35==14 n5 Vbias vdd3! vdd3! PE3 W=6e-06 L=2e-06 m=1 
MMM35==15 n5 Vbias vdd3! vdd3! PE3 W=6e-06 L=2e-06 m=1 
MMM35==16 n5 Vbias vdd3! vdd3! PE3 W=6e-06 L=2e-06 m=1 
MMM35==17 n5 Vbias vdd3! vdd3! PE3 W=6e-06 L=2e-06 m=1 
MMM35==18 n5 Vbias vdd3! vdd3! PE3 W=6e-06 L=2e-06 m=1 
MMM35==19 n5 Vbias vdd3! vdd3! PE3 W=6e-06 L=2e-06 m=1 
MMM35==20 n5 Vbias vdd3! vdd3! PE3 W=6e-06 L=2e-06 m=1 
MMM35==21 n5 Vbias vdd3! vdd3! PE3 W=6e-06 L=2e-06 m=1 
MMM35==22 n5 Vbias vdd3! vdd3! PE3 W=6e-06 L=2e-06 m=1 
MMM35==23 n5 Vbias vdd3! vdd3! PE3 W=6e-06 L=2e-06 m=1 
MMM35==24 n5 Vbias vdd3! vdd3! PE3 W=6e-06 L=2e-06 m=1 
MMM35==25 n5 Vbias vdd3! vdd3! PE3 W=6e-06 L=2e-06 m=1 
MMM35==26 n5 Vbias vdd3! vdd3! PE3 W=6e-06 L=2e-06 m=1 
MMM35==27 n5 Vbias vdd3! vdd3! PE3 W=6e-06 L=2e-06 m=1 
MMM35==28 n5 Vbias vdd3! vdd3! PE3 W=6e-06 L=2e-06 m=1 
MMM35==29 n5 Vbias vdd3! vdd3! PE3 W=6e-06 L=2e-06 m=1 
MMM35==30 n5 Vbias vdd3! vdd3! PE3 W=6e-06 L=2e-06 m=1 
MMM35==31 n5 Vbias vdd3! vdd3! PE3 W=6e-06 L=2e-06 m=1 
MMM35==32 n5 Vbias vdd3! vdd3! PE3 W=6e-06 L=2e-06 m=1 
MMM35==33 n5 Vbias vdd3! vdd3! PE3 W=6e-06 L=2e-06 m=1 
MMM35==34 n5 Vbias vdd3! vdd3! PE3 W=6e-06 L=2e-06 m=1 
MMM35==35 n5 Vbias vdd3! vdd3! PE3 W=6e-06 L=2e-06 m=1 
MMM35==36 n5 Vbias vdd3! vdd3! PE3 W=6e-06 L=2e-06 m=1 
MMM35==37 n5 Vbias vdd3! vdd3! PE3 W=6e-06 L=2e-06 m=1 
MMM35==38 n5 Vbias vdd3! vdd3! PE3 W=6e-06 L=2e-06 m=1 
MMM35==39 n5 Vbias vdd3! vdd3! PE3 W=6e-06 L=2e-06 m=1 
MMM35==40 n5 Vbias vdd3! vdd3! PE3 W=6e-06 L=2e-06 m=1 
MMM35==41 n5 Vbias vdd3! vdd3! PE3 W=6e-06 L=2e-06 m=1 
MMM35==42 n5 Vbias vdd3! vdd3! PE3 W=6e-06 L=2e-06 m=1 
MMM35==43 n5 Vbias vdd3! vdd3! PE3 W=6e-06 L=2e-06 m=1 
MMM35==44 n5 Vbias vdd3! vdd3! PE3 W=6e-06 L=2e-06 m=1 
MMM35==45 n5 Vbias vdd3! vdd3! PE3 W=6e-06 L=2e-06 m=1 
MMM35==46 n5 Vbias vdd3! vdd3! PE3 W=6e-06 L=2e-06 m=1 
MMM35==47 n5 Vbias vdd3! vdd3! PE3 W=6e-06 L=2e-06 m=1 
MMM35==48 n5 Vbias vdd3! vdd3! PE3 W=6e-06 L=2e-06 m=1 
MMM35==49 n5 Vbias vdd3! vdd3! PE3 W=6e-06 L=2e-06 m=1 
MMM35==50 n5 Vbias vdd3! vdd3! PE3 W=6e-06 L=2e-06 m=1 
MMM35==51 n5 Vbias vdd3! vdd3! PE3 W=6e-06 L=2e-06 m=1 
MMM35==52 n5 Vbias vdd3! vdd3! PE3 W=6e-06 L=2e-06 m=1 
MMM35==53 n5 Vbias vdd3! vdd3! PE3 W=6e-06 L=2e-06 m=1 
MMM35==54 n5 Vbias vdd3! vdd3! PE3 W=6e-06 L=2e-06 m=1 
MMM35==55 n5 Vbias vdd3! vdd3! PE3 W=6e-06 L=2e-06 m=1 
MMM35==56 n5 Vbias vdd3! vdd3! PE3 W=6e-06 L=2e-06 m=1 
MMM35==57 n5 Vbias vdd3! vdd3! PE3 W=6e-06 L=2e-06 m=1 
MMM35==58 n5 Vbias vdd3! vdd3! PE3 W=6e-06 L=2e-06 m=1 
MMM35==59 n5 Vbias vdd3! vdd3! PE3 W=6e-06 L=2e-06 m=1 
MMM35==60 n5 Vbias vdd3! vdd3! PE3 W=6e-06 L=2e-06 m=1 
MMM35==61 n5 Vbias vdd3! vdd3! PE3 W=6e-06 L=2e-06 m=1 
MMM35==62 n5 Vbias vdd3! vdd3! PE3 W=6e-06 L=2e-06 m=1 
MMM35==63 n5 Vbias vdd3! vdd3! PE3 W=6e-06 L=2e-06 m=1 
MMM35==64 n5 Vbias vdd3! vdd3! PE3 W=6e-06 L=2e-06 m=1 
MMM36 Ix16 Iref n5 vdd3! PE3 W=6e-06 L=2e-06 m=1 
MMM36==2 Ix16 Iref n5 vdd3! PE3 W=6e-06 L=2e-06 m=1 
MMM36==3 Ix16 Iref n5 vdd3! PE3 W=6e-06 L=2e-06 m=1 
MMM36==4 Ix16 Iref n5 vdd3! PE3 W=6e-06 L=2e-06 m=1 
MMM36==5 Ix16 Iref n5 vdd3! PE3 W=6e-06 L=2e-06 m=1 
MMM36==6 Ix16 Iref n5 vdd3! PE3 W=6e-06 L=2e-06 m=1 
MMM36==7 Ix16 Iref n5 vdd3! PE3 W=6e-06 L=2e-06 m=1 
MMM36==8 Ix16 Iref n5 vdd3! PE3 W=6e-06 L=2e-06 m=1 
MMM36==9 Ix16 Iref n5 vdd3! PE3 W=6e-06 L=2e-06 m=1 
MMM36==10 Ix16 Iref n5 vdd3! PE3 W=6e-06 L=2e-06 m=1 
MMM36==11 Ix16 Iref n5 vdd3! PE3 W=6e-06 L=2e-06 m=1 
MMM36==12 Ix16 Iref n5 vdd3! PE3 W=6e-06 L=2e-06 m=1 
MMM36==13 Ix16 Iref n5 vdd3! PE3 W=6e-06 L=2e-06 m=1 
MMM36==14 Ix16 Iref n5 vdd3! PE3 W=6e-06 L=2e-06 m=1 
MMM36==15 Ix16 Iref n5 vdd3! PE3 W=6e-06 L=2e-06 m=1 
MMM36==16 Ix16 Iref n5 vdd3! PE3 W=6e-06 L=2e-06 m=1 
MMM36==17 Ix16 Iref n5 vdd3! PE3 W=6e-06 L=2e-06 m=1 
MMM36==18 Ix16 Iref n5 vdd3! PE3 W=6e-06 L=2e-06 m=1 
MMM36==19 Ix16 Iref n5 vdd3! PE3 W=6e-06 L=2e-06 m=1 
MMM36==20 Ix16 Iref n5 vdd3! PE3 W=6e-06 L=2e-06 m=1 
MMM36==21 Ix16 Iref n5 vdd3! PE3 W=6e-06 L=2e-06 m=1 
MMM36==22 Ix16 Iref n5 vdd3! PE3 W=6e-06 L=2e-06 m=1 
MMM36==23 Ix16 Iref n5 vdd3! PE3 W=6e-06 L=2e-06 m=1 
MMM36==24 Ix16 Iref n5 vdd3! PE3 W=6e-06 L=2e-06 m=1 
MMM36==25 Ix16 Iref n5 vdd3! PE3 W=6e-06 L=2e-06 m=1 
MMM36==26 Ix16 Iref n5 vdd3! PE3 W=6e-06 L=2e-06 m=1 
MMM36==27 Ix16 Iref n5 vdd3! PE3 W=6e-06 L=2e-06 m=1 
MMM36==28 Ix16 Iref n5 vdd3! PE3 W=6e-06 L=2e-06 m=1 
MMM36==29 Ix16 Iref n5 vdd3! PE3 W=6e-06 L=2e-06 m=1 
MMM36==30 Ix16 Iref n5 vdd3! PE3 W=6e-06 L=2e-06 m=1 
MMM36==31 Ix16 Iref n5 vdd3! PE3 W=6e-06 L=2e-06 m=1 
MMM36==32 Ix16 Iref n5 vdd3! PE3 W=6e-06 L=2e-06 m=1 
MMM36==33 Ix16 Iref n5 vdd3! PE3 W=6e-06 L=2e-06 m=1 
MMM36==34 Ix16 Iref n5 vdd3! PE3 W=6e-06 L=2e-06 m=1 
MMM36==35 Ix16 Iref n5 vdd3! PE3 W=6e-06 L=2e-06 m=1 
MMM36==36 Ix16 Iref n5 vdd3! PE3 W=6e-06 L=2e-06 m=1 
MMM36==37 Ix16 Iref n5 vdd3! PE3 W=6e-06 L=2e-06 m=1 
MMM36==38 Ix16 Iref n5 vdd3! PE3 W=6e-06 L=2e-06 m=1 
MMM36==39 Ix16 Iref n5 vdd3! PE3 W=6e-06 L=2e-06 m=1 
MMM36==40 Ix16 Iref n5 vdd3! PE3 W=6e-06 L=2e-06 m=1 
MMM36==41 Ix16 Iref n5 vdd3! PE3 W=6e-06 L=2e-06 m=1 
MMM36==42 Ix16 Iref n5 vdd3! PE3 W=6e-06 L=2e-06 m=1 
MMM36==43 Ix16 Iref n5 vdd3! PE3 W=6e-06 L=2e-06 m=1 
MMM36==44 Ix16 Iref n5 vdd3! PE3 W=6e-06 L=2e-06 m=1 
MMM36==45 Ix16 Iref n5 vdd3! PE3 W=6e-06 L=2e-06 m=1 
MMM36==46 Ix16 Iref n5 vdd3! PE3 W=6e-06 L=2e-06 m=1 
MMM36==47 Ix16 Iref n5 vdd3! PE3 W=6e-06 L=2e-06 m=1 
MMM36==48 Ix16 Iref n5 vdd3! PE3 W=6e-06 L=2e-06 m=1 
MMM36==49 Ix16 Iref n5 vdd3! PE3 W=6e-06 L=2e-06 m=1 
MMM36==50 Ix16 Iref n5 vdd3! PE3 W=6e-06 L=2e-06 m=1 
MMM36==51 Ix16 Iref n5 vdd3! PE3 W=6e-06 L=2e-06 m=1 
MMM36==52 Ix16 Iref n5 vdd3! PE3 W=6e-06 L=2e-06 m=1 
MMM36==53 Ix16 Iref n5 vdd3! PE3 W=6e-06 L=2e-06 m=1 
MMM36==54 Ix16 Iref n5 vdd3! PE3 W=6e-06 L=2e-06 m=1 
MMM36==55 Ix16 Iref n5 vdd3! PE3 W=6e-06 L=2e-06 m=1 
MMM36==56 Ix16 Iref n5 vdd3! PE3 W=6e-06 L=2e-06 m=1 
MMM36==57 Ix16 Iref n5 vdd3! PE3 W=6e-06 L=2e-06 m=1 
MMM36==58 Ix16 Iref n5 vdd3! PE3 W=6e-06 L=2e-06 m=1 
MMM36==59 Ix16 Iref n5 vdd3! PE3 W=6e-06 L=2e-06 m=1 
MMM36==60 Ix16 Iref n5 vdd3! PE3 W=6e-06 L=2e-06 m=1 
MMM36==61 Ix16 Iref n5 vdd3! PE3 W=6e-06 L=2e-06 m=1 
MMM36==62 Ix16 Iref n5 vdd3! PE3 W=6e-06 L=2e-06 m=1 
MMM36==63 Ix16 Iref n5 vdd3! PE3 W=6e-06 L=2e-06 m=1 
MMM36==64 Ix16 Iref n5 vdd3! PE3 W=6e-06 L=2e-06 m=1 
MMM38 Vbias Vbias vdd3! vdd3! PE3 W=6e-06 L=2e-06 m=1 
MMM38==2 Vbias Vbias vdd3! vdd3! PE3 W=6e-06 L=2e-06 m=1 
MMM38==3 Vbias Vbias vdd3! vdd3! PE3 W=6e-06 L=2e-06 m=1 
MMM38==4 Vbias Vbias vdd3! vdd3! PE3 W=6e-06 L=2e-06 m=1 
MMM39 Idac D1_3v Ix2 vdd3! PE3 W=2e-06 L=3e-07 m=1 
MMM39==2 Idac D1_3v Ix2 vdd3! PE3 W=2e-06 L=3e-07 m=1 
MMM39==3 Idac D1_3v Ix2 vdd3! PE3 W=2e-06 L=3e-07 m=1 
MMM39==4 Idac D1_3v Ix2 vdd3! PE3 W=2e-06 L=3e-07 m=1 
MMM39==5 Idac D1_3v Ix2 vdd3! PE3 W=2e-06 L=3e-07 m=1 
MMM39==6 Idac D1_3v Ix2 vdd3! PE3 W=2e-06 L=3e-07 m=1 
MMM39==7 Idac D1_3v Ix2 vdd3! PE3 W=2e-06 L=3e-07 m=1 
MMM39==8 Idac D1_3v Ix2 vdd3! PE3 W=2e-06 L=3e-07 m=1 
MMM40 Idac D2_3v Ix4 vdd3! PE3 W=2e-06 L=3e-07 m=1 
MMM40==2 Idac D2_3v Ix4 vdd3! PE3 W=2e-06 L=3e-07 m=1 
MMM40==3 Idac D2_3v Ix4 vdd3! PE3 W=2e-06 L=3e-07 m=1 
MMM40==4 Idac D2_3v Ix4 vdd3! PE3 W=2e-06 L=3e-07 m=1 
MMM40==5 Idac D2_3v Ix4 vdd3! PE3 W=2e-06 L=3e-07 m=1 
MMM40==6 Idac D2_3v Ix4 vdd3! PE3 W=2e-06 L=3e-07 m=1 
MMM40==7 Idac D2_3v Ix4 vdd3! PE3 W=2e-06 L=3e-07 m=1 
MMM40==8 Idac D2_3v Ix4 vdd3! PE3 W=2e-06 L=3e-07 m=1 
MMM41 Idac D3_3v Ix8 vdd3! PE3 W=2e-06 L=3e-07 m=1 
MMM41==2 Idac D3_3v Ix8 vdd3! PE3 W=2e-06 L=3e-07 m=1 
MMM41==3 Idac D3_3v Ix8 vdd3! PE3 W=2e-06 L=3e-07 m=1 
MMM41==4 Idac D3_3v Ix8 vdd3! PE3 W=2e-06 L=3e-07 m=1 
MMM41==5 Idac D3_3v Ix8 vdd3! PE3 W=2e-06 L=3e-07 m=1 
MMM41==6 Idac D3_3v Ix8 vdd3! PE3 W=2e-06 L=3e-07 m=1 
MMM41==7 Idac D3_3v Ix8 vdd3! PE3 W=2e-06 L=3e-07 m=1 
MMM41==8 Idac D3_3v Ix8 vdd3! PE3 W=2e-06 L=3e-07 m=1 
MMM42 Idac D4_3v Ix16 vdd3! PE3 W=2e-06 L=3e-07 m=1 
MMM42==2 Idac D4_3v Ix16 vdd3! PE3 W=2e-06 L=3e-07 m=1 
MMM42==3 Idac D4_3v Ix16 vdd3! PE3 W=2e-06 L=3e-07 m=1 
MMM42==4 Idac D4_3v Ix16 vdd3! PE3 W=2e-06 L=3e-07 m=1 
MMM42==5 Idac D4_3v Ix16 vdd3! PE3 W=2e-06 L=3e-07 m=1 
MMM42==6 Idac D4_3v Ix16 vdd3! PE3 W=2e-06 L=3e-07 m=1 
MMM42==7 Idac D4_3v Ix16 vdd3! PE3 W=2e-06 L=3e-07 m=1 
MMM42==8 Idac D4_3v Ix16 vdd3! PE3 W=2e-06 L=3e-07 m=1 
.ends


