** Layout Netlist, pvs precompare
** 

.subckt Idac_5bit_ST_V2 D0_3v D1_3v D2_3v D3_3v D4_3v Idac Iref vdd3! 
MX1247/M0 Idac D0_3v 11 vdd3! PE3 L=3e-07 W=2e-06 m=1 
MX1247/M1 11 D0_3v Idac vdd3! PE3 L=3e-07 W=2e-06 m=1 
MX1247/M2 Idac D0_3v 11 vdd3! PE3 L=3e-07 W=2e-06 m=1 
MX1247/M3 11 D0_3v Idac vdd3! PE3 L=3e-07 W=2e-06 m=1 
MX1247/M4 Idac D0_3v 11 vdd3! PE3 L=3e-07 W=2e-06 m=1 
MX1247/M5 11 D0_3v Idac vdd3! PE3 L=3e-07 W=2e-06 m=1 
MX1247/M6 Idac D0_3v 11 vdd3! PE3 L=3e-07 W=2e-06 m=1 
MX1247/M7 11 D0_3v Idac vdd3! PE3 L=3e-07 W=2e-06 m=1 
MX1248/M0 Idac D1_3v 10 vdd3! PE3 L=3e-07 W=2e-06 m=1 
MX1248/M1 10 D1_3v Idac vdd3! PE3 L=3e-07 W=2e-06 m=1 
MX1248/M2 Idac D1_3v 10 vdd3! PE3 L=3e-07 W=2e-06 m=1 
MX1248/M3 10 D1_3v Idac vdd3! PE3 L=3e-07 W=2e-06 m=1 
MX1248/M4 Idac D1_3v 10 vdd3! PE3 L=3e-07 W=2e-06 m=1 
MX1248/M5 10 D1_3v Idac vdd3! PE3 L=3e-07 W=2e-06 m=1 
MX1248/M6 Idac D1_3v 10 vdd3! PE3 L=3e-07 W=2e-06 m=1 
MX1248/M7 10 D1_3v Idac vdd3! PE3 L=3e-07 W=2e-06 m=1 
MX1249/M0 Idac D2_3v 9 vdd3! PE3 L=3e-07 W=2e-06 m=1 
MX1249/M1 9 D2_3v Idac vdd3! PE3 L=3e-07 W=2e-06 m=1 
MX1249/M2 Idac D2_3v 9 vdd3! PE3 L=3e-07 W=2e-06 m=1 
MX1249/M3 9 D2_3v Idac vdd3! PE3 L=3e-07 W=2e-06 m=1 
MX1249/M4 Idac D2_3v 9 vdd3! PE3 L=3e-07 W=2e-06 m=1 
MX1249/M5 9 D2_3v Idac vdd3! PE3 L=3e-07 W=2e-06 m=1 
MX1249/M6 Idac D2_3v 9 vdd3! PE3 L=3e-07 W=2e-06 m=1 
MX1249/M7 9 D2_3v Idac vdd3! PE3 L=3e-07 W=2e-06 m=1 
MX1250/M0 Idac D3_3v 8 vdd3! PE3 L=3e-07 W=2e-06 m=1 
MX1250/M1 8 D3_3v Idac vdd3! PE3 L=3e-07 W=2e-06 m=1 
MX1250/M2 Idac D3_3v 8 vdd3! PE3 L=3e-07 W=2e-06 m=1 
MX1250/M3 8 D3_3v Idac vdd3! PE3 L=3e-07 W=2e-06 m=1 
MX1250/M4 Idac D3_3v 8 vdd3! PE3 L=3e-07 W=2e-06 m=1 
MX1250/M5 8 D3_3v Idac vdd3! PE3 L=3e-07 W=2e-06 m=1 
MX1250/M6 Idac D3_3v 8 vdd3! PE3 L=3e-07 W=2e-06 m=1 
MX1250/M7 8 D3_3v Idac vdd3! PE3 L=3e-07 W=2e-06 m=1 
MX1251/M0 Idac D4_3v 6 vdd3! PE3 L=3e-07 W=2e-06 m=1 
MX1251/M1 6 D4_3v Idac vdd3! PE3 L=3e-07 W=2e-06 m=1 
MX1251/M2 Idac D4_3v 6 vdd3! PE3 L=3e-07 W=2e-06 m=1 
MX1251/M3 6 D4_3v Idac vdd3! PE3 L=3e-07 W=2e-06 m=1 
MX1251/M4 Idac D4_3v 6 vdd3! PE3 L=3e-07 W=2e-06 m=1 
MX1251/M5 6 D4_3v Idac vdd3! PE3 L=3e-07 W=2e-06 m=1 
MX1251/M6 Idac D4_3v 6 vdd3! PE3 L=3e-07 W=2e-06 m=1 
MX1251/M7 6 D4_3v Idac vdd3! PE3 L=3e-07 W=2e-06 m=1 
MX1252/X0/M0 9 Iref 3 vdd3! PE3 L=2e-06 W=6e-06 m=1 
MX1252/X1/M0 8 Iref 2 vdd3! PE3 L=2e-06 W=6e-06 m=1 
MX1253/X0/M0 6 Iref 1 vdd3! PE3 L=2e-06 W=6e-06 m=1 
MX1253/X1/M0 6 Iref 1 vdd3! PE3 L=2e-06 W=6e-06 m=1 
MX1254/X0/M0 6 Iref 1 vdd3! PE3 L=2e-06 W=6e-06 m=1 
MX1254/X1/M0 6 Iref 1 vdd3! PE3 L=2e-06 W=6e-06 m=1 
MX1255/X0/M0 6 Iref 1 vdd3! PE3 L=2e-06 W=6e-06 m=1 
MX1255/X1/M0 6 Iref 1 vdd3! PE3 L=2e-06 W=6e-06 m=1 
MX1256/X0/X0/M0 6 Iref 1 vdd3! PE3 L=2e-06 W=6e-06 m=1 
MX1256/X0/X1/M0 6 Iref 1 vdd3! PE3 L=2e-06 W=6e-06 m=1 
MX1256/X1/X0/M0 6 Iref 1 vdd3! PE3 L=2e-06 W=6e-06 m=1 
MX1256/X1/X1/M0 6 Iref 1 vdd3! PE3 L=2e-06 W=6e-06 m=1 
MX1257/X0/X0/M0 9 Iref 3 vdd3! PE3 L=2e-06 W=6e-06 m=1 
MX1257/X0/X1/M0 8 Iref 2 vdd3! PE3 L=2e-06 W=6e-06 m=1 
MX1257/X1/X0/M0 6 Iref 1 vdd3! PE3 L=2e-06 W=6e-06 m=1 
MX1257/X1/X1/M0 6 Iref 1 vdd3! PE3 L=2e-06 W=6e-06 m=1 
MX1258/X0/X0/M0 8 Iref 2 vdd3! PE3 L=2e-06 W=6e-06 m=1 
MX1258/X0/X1/M0 6 Iref 1 vdd3! PE3 L=2e-06 W=6e-06 m=1 
MX1258/X1/X0/M0 6 Iref 1 vdd3! PE3 L=2e-06 W=6e-06 m=1 
MX1258/X1/X1/M0 6 Iref 1 vdd3! PE3 L=2e-06 W=6e-06 m=1 
MX1259/X0/X0/M0 6 Iref 1 vdd3! PE3 L=2e-06 W=6e-06 m=1 
MX1259/X0/X1/M0 8 Iref 2 vdd3! PE3 L=2e-06 W=6e-06 m=1 
MX1259/X1/X0/M0 6 Iref 1 vdd3! PE3 L=2e-06 W=6e-06 m=1 
MX1259/X1/X1/M0 6 Iref 1 vdd3! PE3 L=2e-06 W=6e-06 m=1 
MX1260/X0/X0/M0 6 Iref 1 vdd3! PE3 L=2e-06 W=6e-06 m=1 
MX1260/X0/X1/M0 8 Iref 2 vdd3! PE3 L=2e-06 W=6e-06 m=1 
MX1260/X1/X0/M0 6 Iref 1 vdd3! PE3 L=2e-06 W=6e-06 m=1 
MX1260/X1/X1/M0 6 Iref 1 vdd3! PE3 L=2e-06 W=6e-06 m=1 
MX1261/X0/X0/M0 8 Iref 2 vdd3! PE3 L=2e-06 W=6e-06 m=1 
MX1261/X0/X1/M0 6 Iref 1 vdd3! PE3 L=2e-06 W=6e-06 m=1 
MX1261/X1/X0/M0 6 Iref 1 vdd3! PE3 L=2e-06 W=6e-06 m=1 
MX1261/X1/X1/M0 6 Iref 1 vdd3! PE3 L=2e-06 W=6e-06 m=1 
MX1262/X0/X0/M0 6 Iref 1 vdd3! PE3 L=2e-06 W=6e-06 m=1 
MX1262/X0/X1/M0 6 Iref 1 vdd3! PE3 L=2e-06 W=6e-06 m=1 
MX1262/X1/X0/M0 8 Iref 2 vdd3! PE3 L=2e-06 W=6e-06 m=1 
MX1262/X1/X1/M0 6 Iref 1 vdd3! PE3 L=2e-06 W=6e-06 m=1 
MX1263/X0/X0/M0 6 Iref 1 vdd3! PE3 L=2e-06 W=6e-06 m=1 
MX1263/X0/X1/M0 8 Iref 2 vdd3! PE3 L=2e-06 W=6e-06 m=1 
MX1263/X1/X0/M0 8 Iref 2 vdd3! PE3 L=2e-06 W=6e-06 m=1 
MX1263/X1/X1/M0 10 Iref 4 vdd3! PE3 L=2e-06 W=6e-06 m=1 
MX1264/X0/X0/M0 10 Iref 4 vdd3! PE3 L=2e-06 W=6e-06 m=1 
MX1264/X0/X1/M0 9 Iref 3 vdd3! PE3 L=2e-06 W=6e-06 m=1 
MX1264/X1/X0/M0 9 Iref 3 vdd3! PE3 L=2e-06 W=6e-06 m=1 
MX1264/X1/X1/M0 11 Iref 5 vdd3! PE3 L=2e-06 W=6e-06 m=1 
MX1265/X0/X0/M0 8 Iref 2 vdd3! PE3 L=2e-06 W=6e-06 m=1 
MX1265/X0/X1/M0 8 Iref 2 vdd3! PE3 L=2e-06 W=6e-06 m=1 
MX1265/X1/X0/M0 Iref Iref 12 vdd3! PE3 L=2e-06 W=6e-06 m=1 
MX1265/X1/X1/M0 9 Iref 3 vdd3! PE3 L=2e-06 W=6e-06 m=1 
MX1266/X0/X0/M0 8 Iref 2 vdd3! PE3 L=2e-06 W=6e-06 m=1 
MX1266/X0/X1/M0 8 Iref 2 vdd3! PE3 L=2e-06 W=6e-06 m=1 
MX1266/X1/X0/M0 Iref Iref 12 vdd3! PE3 L=2e-06 W=6e-06 m=1 
MX1266/X1/X1/M0 9 Iref 3 vdd3! PE3 L=2e-06 W=6e-06 m=1 
MX1267/X0/X0/M0 10 Iref 4 vdd3! PE3 L=2e-06 W=6e-06 m=1 
MX1267/X0/X1/M0 9 Iref 3 vdd3! PE3 L=2e-06 W=6e-06 m=1 
MX1267/X1/X0/M0 9 Iref 3 vdd3! PE3 L=2e-06 W=6e-06 m=1 
MX1267/X1/X1/M0 11 Iref 5 vdd3! PE3 L=2e-06 W=6e-06 m=1 
MX1268/X0/X0/M0 6 Iref 1 vdd3! PE3 L=2e-06 W=6e-06 m=1 
MX1268/X0/X1/M0 8 Iref 2 vdd3! PE3 L=2e-06 W=6e-06 m=1 
MX1268/X1/X0/M0 8 Iref 2 vdd3! PE3 L=2e-06 W=6e-06 m=1 
MX1268/X1/X1/M0 10 Iref 4 vdd3! PE3 L=2e-06 W=6e-06 m=1 
MX1269/X0/X0/M0 6 Iref 1 vdd3! PE3 L=2e-06 W=6e-06 m=1 
MX1269/X0/X1/M0 6 Iref 1 vdd3! PE3 L=2e-06 W=6e-06 m=1 
MX1269/X1/X0/M0 8 Iref 2 vdd3! PE3 L=2e-06 W=6e-06 m=1 
MX1269/X1/X1/M0 6 Iref 1 vdd3! PE3 L=2e-06 W=6e-06 m=1 
MX1270/X0/X0/X0/M0 6 Iref 1 vdd3! PE3 L=2e-06 W=6e-06 m=1 
MX1270/X0/X0/X1/M0 6 Iref 1 vdd3! PE3 L=2e-06 W=6e-06 m=1 
MX1270/X0/X1/X0/M0 6 Iref 1 vdd3! PE3 L=2e-06 W=6e-06 m=1 
MX1270/X0/X1/X1/M0 6 Iref 1 vdd3! PE3 L=2e-06 W=6e-06 m=1 
MX1270/X1/X0/X0/M0 6 Iref 1 vdd3! PE3 L=2e-06 W=6e-06 m=1 
MX1270/X1/X0/X1/M0 6 Iref 1 vdd3! PE3 L=2e-06 W=6e-06 m=1 
MX1270/X1/X1/X0/M0 6 Iref 1 vdd3! PE3 L=2e-06 W=6e-06 m=1 
MX1270/X1/X1/X1/M0 8 Iref 2 vdd3! PE3 L=2e-06 W=6e-06 m=1 
MX1271/X0/X0/X0/M0 6 Iref 1 vdd3! PE3 L=2e-06 W=6e-06 m=1 
MX1271/X0/X0/X1/M0 6 Iref 1 vdd3! PE3 L=2e-06 W=6e-06 m=1 
MX1271/X0/X1/X0/M0 8 Iref 2 vdd3! PE3 L=2e-06 W=6e-06 m=1 
MX1271/X0/X1/X1/M0 9 Iref 3 vdd3! PE3 L=2e-06 W=6e-06 m=1 
MX1271/X1/X0/X0/M0 8 Iref 2 vdd3! PE3 L=2e-06 W=6e-06 m=1 
MX1271/X1/X0/X1/M0 6 Iref 1 vdd3! PE3 L=2e-06 W=6e-06 m=1 
MX1271/X1/X1/X0/M0 10 Iref 4 vdd3! PE3 L=2e-06 W=6e-06 m=1 
MX1271/X1/X1/X1/M0 8 Iref 2 vdd3! PE3 L=2e-06 W=6e-06 m=1 
MX1272/X0/X0/X0/M0 6 Iref 1 vdd3! PE3 L=2e-06 W=6e-06 m=1 
MX1272/X0/X0/X1/M0 6 Iref 1 vdd3! PE3 L=2e-06 W=6e-06 m=1 
MX1272/X0/X1/X0/M0 6 Iref 1 vdd3! PE3 L=2e-06 W=6e-06 m=1 
MX1272/X0/X1/X1/M0 8 Iref 2 vdd3! PE3 L=2e-06 W=6e-06 m=1 
MX1272/X1/X0/X0/M0 9 Iref 3 vdd3! PE3 L=2e-06 W=6e-06 m=1 
MX1272/X1/X0/X1/M0 10 Iref 4 vdd3! PE3 L=2e-06 W=6e-06 m=1 
MX1272/X1/X1/X0/M0 11 Iref 5 vdd3! PE3 L=2e-06 W=6e-06 m=1 
MX1272/X1/X1/X1/M0 9 Iref 3 vdd3! PE3 L=2e-06 W=6e-06 m=1 
MX1273/X0/X0/X0/M0 6 Iref 1 vdd3! PE3 L=2e-06 W=6e-06 m=1 
MX1273/X0/X0/X1/M0 6 Iref 1 vdd3! PE3 L=2e-06 W=6e-06 m=1 
MX1273/X0/X1/X0/M0 8 Iref 2 vdd3! PE3 L=2e-06 W=6e-06 m=1 
MX1273/X0/X1/X1/M0 6 Iref 1 vdd3! PE3 L=2e-06 W=6e-06 m=1 
MX1273/X1/X0/X0/M0 8 Iref 2 vdd3! PE3 L=2e-06 W=6e-06 m=1 
MX1273/X1/X0/X1/M0 8 Iref 2 vdd3! PE3 L=2e-06 W=6e-06 m=1 
MX1273/X1/X1/X0/M0 9 Iref 3 vdd3! PE3 L=2e-06 W=6e-06 m=1 
MX1273/X1/X1/X1/M0 Iref Iref 12 vdd3! PE3 L=2e-06 W=6e-06 m=1 
MX1274/X0/X0/X0/M0 6 Iref 1 vdd3! PE3 L=2e-06 W=6e-06 m=1 
MX1274/X0/X0/X1/M0 6 Iref 1 vdd3! PE3 L=2e-06 W=6e-06 m=1 
MX1274/X0/X1/X0/M0 8 Iref 2 vdd3! PE3 L=2e-06 W=6e-06 m=1 
MX1274/X0/X1/X1/M0 6 Iref 1 vdd3! PE3 L=2e-06 W=6e-06 m=1 
MX1274/X1/X0/X0/M0 8 Iref 2 vdd3! PE3 L=2e-06 W=6e-06 m=1 
MX1274/X1/X0/X1/M0 8 Iref 2 vdd3! PE3 L=2e-06 W=6e-06 m=1 
MX1274/X1/X1/X0/M0 9 Iref 3 vdd3! PE3 L=2e-06 W=6e-06 m=1 
MX1274/X1/X1/X1/M0 Iref Iref 12 vdd3! PE3 L=2e-06 W=6e-06 m=1 
MX1275/X0/X0/X0/M0 6 Iref 1 vdd3! PE3 L=2e-06 W=6e-06 m=1 
MX1275/X0/X0/X1/M0 6 Iref 1 vdd3! PE3 L=2e-06 W=6e-06 m=1 
MX1275/X0/X1/X0/M0 6 Iref 1 vdd3! PE3 L=2e-06 W=6e-06 m=1 
MX1275/X0/X1/X1/M0 8 Iref 2 vdd3! PE3 L=2e-06 W=6e-06 m=1 
MX1275/X1/X0/X0/M0 9 Iref 3 vdd3! PE3 L=2e-06 W=6e-06 m=1 
MX1275/X1/X0/X1/M0 10 Iref 4 vdd3! PE3 L=2e-06 W=6e-06 m=1 
MX1275/X1/X1/X0/M0 11 Iref 5 vdd3! PE3 L=2e-06 W=6e-06 m=1 
MX1275/X1/X1/X1/M0 9 Iref 3 vdd3! PE3 L=2e-06 W=6e-06 m=1 
MX1276/X0/X0/X0/M0 6 Iref 1 vdd3! PE3 L=2e-06 W=6e-06 m=1 
MX1276/X0/X0/X1/M0 6 Iref 1 vdd3! PE3 L=2e-06 W=6e-06 m=1 
MX1276/X0/X1/X0/M0 8 Iref 2 vdd3! PE3 L=2e-06 W=6e-06 m=1 
MX1276/X0/X1/X1/M0 9 Iref 3 vdd3! PE3 L=2e-06 W=6e-06 m=1 
MX1276/X1/X0/X0/M0 8 Iref 2 vdd3! PE3 L=2e-06 W=6e-06 m=1 
MX1276/X1/X0/X1/M0 6 Iref 1 vdd3! PE3 L=2e-06 W=6e-06 m=1 
MX1276/X1/X1/X0/M0 10 Iref 4 vdd3! PE3 L=2e-06 W=6e-06 m=1 
MX1276/X1/X1/X1/M0 8 Iref 2 vdd3! PE3 L=2e-06 W=6e-06 m=1 
MX1277/X0/X0/X0/M0 6 Iref 1 vdd3! PE3 L=2e-06 W=6e-06 m=1 
MX1277/X0/X0/X1/M0 6 Iref 1 vdd3! PE3 L=2e-06 W=6e-06 m=1 
MX1277/X0/X1/X0/M0 6 Iref 1 vdd3! PE3 L=2e-06 W=6e-06 m=1 
MX1277/X0/X1/X1/M0 6 Iref 1 vdd3! PE3 L=2e-06 W=6e-06 m=1 
MX1277/X1/X0/X0/M0 6 Iref 1 vdd3! PE3 L=2e-06 W=6e-06 m=1 
MX1277/X1/X0/X1/M0 6 Iref 1 vdd3! PE3 L=2e-06 W=6e-06 m=1 
MX1277/X1/X1/X0/M0 6 Iref 1 vdd3! PE3 L=2e-06 W=6e-06 m=1 
MX1277/X1/X1/X1/M0 8 Iref 2 vdd3! PE3 L=2e-06 W=6e-06 m=1 
MX1278/X1/X0/X0/X0/M0 1 12 vdd3! vdd3! PE3 L=2e-06 W=6e-06 m=1 
MX1278/X1/X0/X0/X1/M0 1 12 vdd3! vdd3! PE3 L=2e-06 W=6e-06 m=1 
MX1278/X1/X0/X1/X0/M0 1 12 vdd3! vdd3! PE3 L=2e-06 W=6e-06 m=1 
MX1278/X1/X0/X1/X1/M0 1 12 vdd3! vdd3! PE3 L=2e-06 W=6e-06 m=1 
MX1278/X1/X1/X0/X0/M0 1 12 vdd3! vdd3! PE3 L=2e-06 W=6e-06 m=1 
MX1278/X1/X1/X0/X1/M0 1 12 vdd3! vdd3! PE3 L=2e-06 W=6e-06 m=1 
MX1278/X1/X1/X1/X0/M0 1 12 vdd3! vdd3! PE3 L=2e-06 W=6e-06 m=1 
MX1278/X1/X1/X1/X1/M0 2 12 vdd3! vdd3! PE3 L=2e-06 W=6e-06 m=1 
MX1278/X0/X0/X0/X0/M0 2 12 vdd3! vdd3! PE3 L=2e-06 W=6e-06 m=1 
MX1278/X0/X0/X0/X1/M0 1 12 vdd3! vdd3! PE3 L=2e-06 W=6e-06 m=1 
MX1278/X0/X0/X1/X0/M0 1 12 vdd3! vdd3! PE3 L=2e-06 W=6e-06 m=1 
MX1278/X0/X0/X1/X1/M0 1 12 vdd3! vdd3! PE3 L=2e-06 W=6e-06 m=1 
MX1278/X0/X1/X0/X0/M0 1 12 vdd3! vdd3! PE3 L=2e-06 W=6e-06 m=1 
MX1278/X0/X1/X0/X1/M0 1 12 vdd3! vdd3! PE3 L=2e-06 W=6e-06 m=1 
MX1278/X0/X1/X1/X0/M0 1 12 vdd3! vdd3! PE3 L=2e-06 W=6e-06 m=1 
MX1278/X0/X1/X1/X1/M0 1 12 vdd3! vdd3! PE3 L=2e-06 W=6e-06 m=1 
MX1279/X1/X0/X0/X0/M0 1 12 vdd3! vdd3! PE3 L=2e-06 W=6e-06 m=1 
MX1279/X1/X0/X0/X1/M0 1 12 vdd3! vdd3! PE3 L=2e-06 W=6e-06 m=1 
MX1279/X1/X0/X1/X0/M0 2 12 vdd3! vdd3! PE3 L=2e-06 W=6e-06 m=1 
MX1279/X1/X0/X1/X1/M0 3 12 vdd3! vdd3! PE3 L=2e-06 W=6e-06 m=1 
MX1279/X1/X1/X0/X0/M0 2 12 vdd3! vdd3! PE3 L=2e-06 W=6e-06 m=1 
MX1279/X1/X1/X0/X1/M0 1 12 vdd3! vdd3! PE3 L=2e-06 W=6e-06 m=1 
MX1279/X1/X1/X1/X0/M0 4 12 vdd3! vdd3! PE3 L=2e-06 W=6e-06 m=1 
MX1279/X1/X1/X1/X1/M0 2 12 vdd3! vdd3! PE3 L=2e-06 W=6e-06 m=1 
MX1279/X0/X0/X0/X0/M0 2 12 vdd3! vdd3! PE3 L=2e-06 W=6e-06 m=1 
MX1279/X0/X0/X0/X1/M0 4 12 vdd3! vdd3! PE3 L=2e-06 W=6e-06 m=1 
MX1279/X0/X0/X1/X0/M0 1 12 vdd3! vdd3! PE3 L=2e-06 W=6e-06 m=1 
MX1279/X0/X0/X1/X1/M0 2 12 vdd3! vdd3! PE3 L=2e-06 W=6e-06 m=1 
MX1279/X0/X1/X0/X0/M0 3 12 vdd3! vdd3! PE3 L=2e-06 W=6e-06 m=1 
MX1279/X0/X1/X0/X1/M0 2 12 vdd3! vdd3! PE3 L=2e-06 W=6e-06 m=1 
MX1279/X0/X1/X1/X0/M0 1 12 vdd3! vdd3! PE3 L=2e-06 W=6e-06 m=1 
MX1279/X0/X1/X1/X1/M0 1 12 vdd3! vdd3! PE3 L=2e-06 W=6e-06 m=1 
MX1280/X1/X0/X0/X0/M0 1 12 vdd3! vdd3! PE3 L=2e-06 W=6e-06 m=1 
MX1280/X1/X0/X0/X1/M0 1 12 vdd3! vdd3! PE3 L=2e-06 W=6e-06 m=1 
MX1280/X1/X0/X1/X0/M0 1 12 vdd3! vdd3! PE3 L=2e-06 W=6e-06 m=1 
MX1280/X1/X0/X1/X1/M0 2 12 vdd3! vdd3! PE3 L=2e-06 W=6e-06 m=1 
MX1280/X1/X1/X0/X0/M0 3 12 vdd3! vdd3! PE3 L=2e-06 W=6e-06 m=1 
MX1280/X1/X1/X0/X1/M0 4 12 vdd3! vdd3! PE3 L=2e-06 W=6e-06 m=1 
MX1280/X1/X1/X1/X0/M0 5 12 vdd3! vdd3! PE3 L=2e-06 W=6e-06 m=1 
MX1280/X1/X1/X1/X1/M0 3 12 vdd3! vdd3! PE3 L=2e-06 W=6e-06 m=1 
MX1280/X0/X0/X0/X0/M0 3 12 vdd3! vdd3! PE3 L=2e-06 W=6e-06 m=1 
MX1280/X0/X0/X0/X1/M0 5 12 vdd3! vdd3! PE3 L=2e-06 W=6e-06 m=1 
MX1280/X0/X0/X1/X0/M0 4 12 vdd3! vdd3! PE3 L=2e-06 W=6e-06 m=1 
MX1280/X0/X0/X1/X1/M0 3 12 vdd3! vdd3! PE3 L=2e-06 W=6e-06 m=1 
MX1280/X0/X1/X0/X0/M0 2 12 vdd3! vdd3! PE3 L=2e-06 W=6e-06 m=1 
MX1280/X0/X1/X0/X1/M0 1 12 vdd3! vdd3! PE3 L=2e-06 W=6e-06 m=1 
MX1280/X0/X1/X1/X0/M0 1 12 vdd3! vdd3! PE3 L=2e-06 W=6e-06 m=1 
MX1280/X0/X1/X1/X1/M0 1 12 vdd3! vdd3! PE3 L=2e-06 W=6e-06 m=1 
MX1281/X1/X0/X0/X0/M0 1 12 vdd3! vdd3! PE3 L=2e-06 W=6e-06 m=1 
MX1281/X1/X0/X0/X1/M0 1 12 vdd3! vdd3! PE3 L=2e-06 W=6e-06 m=1 
MX1281/X1/X0/X1/X0/M0 2 12 vdd3! vdd3! PE3 L=2e-06 W=6e-06 m=1 
MX1281/X1/X0/X1/X1/M0 1 12 vdd3! vdd3! PE3 L=2e-06 W=6e-06 m=1 
MX1281/X1/X1/X0/X0/M0 2 12 vdd3! vdd3! PE3 L=2e-06 W=6e-06 m=1 
MX1281/X1/X1/X0/X1/M0 2 12 vdd3! vdd3! PE3 L=2e-06 W=6e-06 m=1 
MX1281/X1/X1/X1/X0/M0 3 12 vdd3! vdd3! PE3 L=2e-06 W=6e-06 m=1 
MX1281/X1/X1/X1/X1/M0 12 12 vdd3! vdd3! PE3 L=2e-06 W=6e-06 m=1 
MX1281/X0/X0/X0/X0/M0 12 12 vdd3! vdd3! PE3 L=2e-06 W=6e-06 m=1 
MX1281/X0/X0/X0/X1/M0 3 12 vdd3! vdd3! PE3 L=2e-06 W=6e-06 m=1 
MX1281/X0/X0/X1/X0/M0 2 12 vdd3! vdd3! PE3 L=2e-06 W=6e-06 m=1 
MX1281/X0/X0/X1/X1/M0 2 12 vdd3! vdd3! PE3 L=2e-06 W=6e-06 m=1 
MX1281/X0/X1/X0/X0/M0 1 12 vdd3! vdd3! PE3 L=2e-06 W=6e-06 m=1 
MX1281/X0/X1/X0/X1/M0 2 12 vdd3! vdd3! PE3 L=2e-06 W=6e-06 m=1 
MX1281/X0/X1/X1/X0/M0 1 12 vdd3! vdd3! PE3 L=2e-06 W=6e-06 m=1 
MX1281/X0/X1/X1/X1/M0 1 12 vdd3! vdd3! PE3 L=2e-06 W=6e-06 m=1 
MX1282/X1/X0/X0/X0/M0 1 12 vdd3! vdd3! PE3 L=2e-06 W=6e-06 m=1 
MX1282/X1/X0/X0/X1/M0 1 12 vdd3! vdd3! PE3 L=2e-06 W=6e-06 m=1 
MX1282/X1/X0/X1/X0/M0 2 12 vdd3! vdd3! PE3 L=2e-06 W=6e-06 m=1 
MX1282/X1/X0/X1/X1/M0 1 12 vdd3! vdd3! PE3 L=2e-06 W=6e-06 m=1 
MX1282/X1/X1/X0/X0/M0 2 12 vdd3! vdd3! PE3 L=2e-06 W=6e-06 m=1 
MX1282/X1/X1/X0/X1/M0 2 12 vdd3! vdd3! PE3 L=2e-06 W=6e-06 m=1 
MX1282/X1/X1/X1/X0/M0 3 12 vdd3! vdd3! PE3 L=2e-06 W=6e-06 m=1 
MX1282/X1/X1/X1/X1/M0 12 12 vdd3! vdd3! PE3 L=2e-06 W=6e-06 m=1 
MX1282/X0/X0/X0/X0/M0 12 12 vdd3! vdd3! PE3 L=2e-06 W=6e-06 m=1 
MX1282/X0/X0/X0/X1/M0 3 12 vdd3! vdd3! PE3 L=2e-06 W=6e-06 m=1 
MX1282/X0/X0/X1/X0/M0 2 12 vdd3! vdd3! PE3 L=2e-06 W=6e-06 m=1 
MX1282/X0/X0/X1/X1/M0 2 12 vdd3! vdd3! PE3 L=2e-06 W=6e-06 m=1 
MX1282/X0/X1/X0/X0/M0 1 12 vdd3! vdd3! PE3 L=2e-06 W=6e-06 m=1 
MX1282/X0/X1/X0/X1/M0 2 12 vdd3! vdd3! PE3 L=2e-06 W=6e-06 m=1 
MX1282/X0/X1/X1/X0/M0 1 12 vdd3! vdd3! PE3 L=2e-06 W=6e-06 m=1 
MX1282/X0/X1/X1/X1/M0 1 12 vdd3! vdd3! PE3 L=2e-06 W=6e-06 m=1 
MX1283/X1/X0/X0/X0/M0 1 12 vdd3! vdd3! PE3 L=2e-06 W=6e-06 m=1 
MX1283/X1/X0/X0/X1/M0 1 12 vdd3! vdd3! PE3 L=2e-06 W=6e-06 m=1 
MX1283/X1/X0/X1/X0/M0 1 12 vdd3! vdd3! PE3 L=2e-06 W=6e-06 m=1 
MX1283/X1/X0/X1/X1/M0 2 12 vdd3! vdd3! PE3 L=2e-06 W=6e-06 m=1 
MX1283/X1/X1/X0/X0/M0 3 12 vdd3! vdd3! PE3 L=2e-06 W=6e-06 m=1 
MX1283/X1/X1/X0/X1/M0 4 12 vdd3! vdd3! PE3 L=2e-06 W=6e-06 m=1 
MX1283/X1/X1/X1/X0/M0 5 12 vdd3! vdd3! PE3 L=2e-06 W=6e-06 m=1 
MX1283/X1/X1/X1/X1/M0 3 12 vdd3! vdd3! PE3 L=2e-06 W=6e-06 m=1 
MX1283/X0/X0/X0/X0/M0 3 12 vdd3! vdd3! PE3 L=2e-06 W=6e-06 m=1 
MX1283/X0/X0/X0/X1/M0 5 12 vdd3! vdd3! PE3 L=2e-06 W=6e-06 m=1 
MX1283/X0/X0/X1/X0/M0 4 12 vdd3! vdd3! PE3 L=2e-06 W=6e-06 m=1 
MX1283/X0/X0/X1/X1/M0 3 12 vdd3! vdd3! PE3 L=2e-06 W=6e-06 m=1 
MX1283/X0/X1/X0/X0/M0 2 12 vdd3! vdd3! PE3 L=2e-06 W=6e-06 m=1 
MX1283/X0/X1/X0/X1/M0 1 12 vdd3! vdd3! PE3 L=2e-06 W=6e-06 m=1 
MX1283/X0/X1/X1/X0/M0 1 12 vdd3! vdd3! PE3 L=2e-06 W=6e-06 m=1 
MX1283/X0/X1/X1/X1/M0 1 12 vdd3! vdd3! PE3 L=2e-06 W=6e-06 m=1 
MX1284/X1/X0/X0/X0/M0 1 12 vdd3! vdd3! PE3 L=2e-06 W=6e-06 m=1 
MX1284/X1/X0/X0/X1/M0 1 12 vdd3! vdd3! PE3 L=2e-06 W=6e-06 m=1 
MX1284/X1/X0/X1/X0/M0 2 12 vdd3! vdd3! PE3 L=2e-06 W=6e-06 m=1 
MX1284/X1/X0/X1/X1/M0 3 12 vdd3! vdd3! PE3 L=2e-06 W=6e-06 m=1 
MX1284/X1/X1/X0/X0/M0 2 12 vdd3! vdd3! PE3 L=2e-06 W=6e-06 m=1 
MX1284/X1/X1/X0/X1/M0 1 12 vdd3! vdd3! PE3 L=2e-06 W=6e-06 m=1 
MX1284/X1/X1/X1/X0/M0 4 12 vdd3! vdd3! PE3 L=2e-06 W=6e-06 m=1 
MX1284/X1/X1/X1/X1/M0 2 12 vdd3! vdd3! PE3 L=2e-06 W=6e-06 m=1 
MX1284/X0/X0/X0/X0/M0 2 12 vdd3! vdd3! PE3 L=2e-06 W=6e-06 m=1 
MX1284/X0/X0/X0/X1/M0 4 12 vdd3! vdd3! PE3 L=2e-06 W=6e-06 m=1 
MX1284/X0/X0/X1/X0/M0 1 12 vdd3! vdd3! PE3 L=2e-06 W=6e-06 m=1 
MX1284/X0/X0/X1/X1/M0 2 12 vdd3! vdd3! PE3 L=2e-06 W=6e-06 m=1 
MX1284/X0/X1/X0/X0/M0 3 12 vdd3! vdd3! PE3 L=2e-06 W=6e-06 m=1 
MX1284/X0/X1/X0/X1/M0 2 12 vdd3! vdd3! PE3 L=2e-06 W=6e-06 m=1 
MX1284/X0/X1/X1/X0/M0 1 12 vdd3! vdd3! PE3 L=2e-06 W=6e-06 m=1 
MX1284/X0/X1/X1/X1/M0 1 12 vdd3! vdd3! PE3 L=2e-06 W=6e-06 m=1 
MX1285/X1/X0/X0/X0/M0 1 12 vdd3! vdd3! PE3 L=2e-06 W=6e-06 m=1 
MX1285/X1/X0/X0/X1/M0 1 12 vdd3! vdd3! PE3 L=2e-06 W=6e-06 m=1 
MX1285/X1/X0/X1/X0/M0 1 12 vdd3! vdd3! PE3 L=2e-06 W=6e-06 m=1 
MX1285/X1/X0/X1/X1/M0 1 12 vdd3! vdd3! PE3 L=2e-06 W=6e-06 m=1 
MX1285/X1/X1/X0/X0/M0 1 12 vdd3! vdd3! PE3 L=2e-06 W=6e-06 m=1 
MX1285/X1/X1/X0/X1/M0 1 12 vdd3! vdd3! PE3 L=2e-06 W=6e-06 m=1 
MX1285/X1/X1/X1/X0/M0 1 12 vdd3! vdd3! PE3 L=2e-06 W=6e-06 m=1 
MX1285/X1/X1/X1/X1/M0 2 12 vdd3! vdd3! PE3 L=2e-06 W=6e-06 m=1 
MX1285/X0/X0/X0/X0/M0 2 12 vdd3! vdd3! PE3 L=2e-06 W=6e-06 m=1 
MX1285/X0/X0/X0/X1/M0 1 12 vdd3! vdd3! PE3 L=2e-06 W=6e-06 m=1 
MX1285/X0/X0/X1/X0/M0 1 12 vdd3! vdd3! PE3 L=2e-06 W=6e-06 m=1 
MX1285/X0/X0/X1/X1/M0 1 12 vdd3! vdd3! PE3 L=2e-06 W=6e-06 m=1 
MX1285/X0/X1/X0/X0/M0 1 12 vdd3! vdd3! PE3 L=2e-06 W=6e-06 m=1 
MX1285/X0/X1/X0/X1/M0 1 12 vdd3! vdd3! PE3 L=2e-06 W=6e-06 m=1 
MX1285/X0/X1/X1/X0/M0 1 12 vdd3! vdd3! PE3 L=2e-06 W=6e-06 m=1 
MX1285/X0/X1/X1/X1/M0 1 12 vdd3! vdd3! PE3 L=2e-06 W=6e-06 m=1 
.ends


