simulator lang=spectre
include "nedia.scs"
include "ped.scs"
