// Generated for: spectre
// Generated on: Mar 15 16:40:28 2021
// Design library name: Stimulator_TestBench
// Design cell name: TB_HighSide_LS_SW_DCop
// Design view name: schematic
simulator lang=spectre
global 0 vdd3! vdde!
parameters Ist=30m Ibias=100u
include "/pkg/xfab/XKIT/xh018/cadence/v8_0/spectre/v8_0_1/lpmos/config.scs" section=default
include "/pkg/xfab/XKIT/xh018/cadence/v8_0/spectre/v8_0_1/lpmos/param.scs" section=3s
include "/pkg/xfab/XKIT/xh018/cadence/v8_0/spectre/v8_0_1/lpmos/bip.scs" section=tm
include "/pkg/xfab/XKIT/xh018/cadence/v8_0/spectre/v8_0_1/lpmos/cap.scs" section=tm
include "/pkg/xfab/XKIT/xh018/cadence/v8_0/spectre/v8_0_1/lpmos/dio.scs" section=tm
include "/pkg/xfab/XKIT/xh018/cadence/v8_0/spectre/v8_0_1/lpmos/mos.scs" section=tm
include "/pkg/xfab/XKIT/xh018/cadence/v8_0/spectre/v8_0_1/lpmos/photo.scs" section=tm
include "/pkg/xfab/XKIT/xh018/cadence/v8_0/spectre/v8_0_1/lpmos/res.scs" section=tm

// Library name: Stimulator_TestBench
// Cell name: TB_HighSide_LS_SW_DCop
// View name: schematic
R1 (vddh net12) resistor r=100k
R4 (net12 net10) resistor r=300k
R9 (vddh net8) resistor r=100k
R8 (net8 net14) resistor r=300k
M2 (net10 vdd3! net11 0) nedia_bjt w=10u l=1.25u m=(1)*(3) par1=((1)*(3)) \
        extlay=0 xf_subext=0
M13 (net14 vdd3! 0 0) nedia_bjt w=10u l=1.25u m=(1)*(5) par1=((1)*(5)) \
        extlay=0 xf_subext=0
M4 (net011 net12 vddh 0) ped_bjt w=40u l=940.0n m=(1)*(20) par1=((1)*(20)) \
        extlay=0 xf_subext=0
M3 (net13 net8 vddh 0) ped_bjt w=40u l=940.0n m=(1)*(20) par1=((1)*(20)) \
        extlay=0 xf_subext=0
V3 (vddh 0) vsource dc=40 type=dc
V2 (vdde! 0) vsource dc=1.8 type=dc
V1 (vdd3! 0) vsource dc=3.3 type=dc
M0 (net11 bias 0 0) ne3 w=2u l=350.0n as=6.24e-13 ad=5.4e-13 ps=3.024e-06 \
        pd=2.54e-06 nrs=0.135 nrd=0.135 m=(1)*(10) par1=((1)*(10)) \
        xf_subext=0
M1 (bias bias 0 0) ne3 w=2u l=350.0n as=9.6e-13 ad=9.6e-13 ps=4.96e-06 \
        pd=4.96e-06 nrs=0.135 nrd=0.135 m=(1)*(1) par1=((1)*(1)) \
        xf_subext=0
I3 (net011 0) isource dc=Ist type=dc
I2 (net13 0) isource dc=Ist type=dc
I0 (vdde! bias) isource dc=Ibias type=dc
simulatorOptions options psfversion="1.1.0" reltol=100e-6 vabstol=1e-6 \
    iabstol=1e-12 temp=27 tnom=27 homotopy=all limit=delta scalem=1.0 \
    scale=1.0 compatible=spice2 gmin=1e-12 rforce=1 maxnotes=5 maxwarns=5 \
    digits=5 cols=80 pivrel=1e-3 sensfile="../psf/sens.output" \
    checklimitdest=psf 
dcOp dc write="spectre.dc" maxiters=150 maxsteps=10000 annotate=status
dcOpInfo info what=oppoint where=rawfile
modelParameter info what=models where=rawfile
element info what=inst where=rawfile
outputParameter info what=output where=rawfile
designParamVals info what=parameters where=rawfile
primitives info what=primitives where=rawfile
subckts info what=subckts where=rawfile
saveOptions options save=allpub
