// Generated for: spectre
// Generated on: Mar 15 16:40:28 2021
// Design library name: Stimulator_TestBench
// Design cell name: TB_HighSide_LS_SW_DCop
// Design view name: schematic
simulator lang=spectre
global 0 vdd3! vdde!
