// Generated for: spectre
// Generated on: Feb 10 18:47:39 2021
// Design library name: EMG_NMES_TestBench
// Design cell name: Sim_StimulusArtifact
// Design view name: config
simulator lang=spectre binding=vlog  
global 0
