// Generated for: spectre
// Generated on: Feb  9 11:20:13 2021
// Design library name: EMG_NMES_TestBench
// Design cell name: Sim_StimulusArtifact
// Design view name: config
simulator lang=spectre binding=vlog  
global 0
