// Generated for: spectre
// Generated on: May 13 15:52:36 2021
// Design library name: EMG_NMES_TestBench
// Design cell name: Sim_StimulusArtifact
// Design view name: config
simulator lang=spectre binding=vlog  
global 0 vdd3! vdde! vdd!
