// Generated for: spectre
// Generated on: Sep 30 17:09:16 2020
// Design library name: EMG_202009
// Design cell name: TB_VGA
// Design view name: config
simulator lang=spectre binding=vlog  
global 0
