simulator lang=spectre
include "ne3.scs"
