// Generated for: spectre
// Generated on: Mar 12 15:37:53 2021
// Design library name: Device_Characteristics
// Design cell name: DC_BIAS_ne3
// Design view name: schematic
simulator lang=spectre
global 0
parameters W=150u VDS=3.3 VGS=3.3
include "/pkg/xfab/XKIT/xh018/cadence/v8_0/spectre/v8_0_1/lpmos/config.scs" section=default
include "/pkg/xfab/XKIT/xh018/cadence/v8_0/spectre/v8_0_1/lpmos/param.scs" section=3s
include "/pkg/xfab/XKIT/xh018/cadence/v8_0/spectre/v8_0_1/lpmos/bip.scs" section=tm
include "/pkg/xfab/XKIT/xh018/cadence/v8_0/spectre/v8_0_1/lpmos/cap.scs" section=tm
include "/pkg/xfab/XKIT/xh018/cadence/v8_0/spectre/v8_0_1/lpmos/dio.scs" section=tm
include "/pkg/xfab/XKIT/xh018/cadence/v8_0/spectre/v8_0_1/lpmos/mos.scs" section=tm
include "/pkg/xfab/XKIT/xh018/cadence/v8_0/spectre/v8_0_1/lpmos/photo.scs" section=tm
include "/pkg/xfab/XKIT/xh018/cadence/v8_0/spectre/v8_0_1/lpmos/res.scs" section=tm

// Library name: Device_Characteristics
// Cell name: DC_BIAS_ne3
// View name: schematic
M1 (net4 net3 0 0) ne3 w=W l=350.0n as=4.8e-07*(W) ad=4.8e-07*(W) \
        ps=1*2*(4.8e-07+(W)) pd=2*(4.8e-07+(W)) nrs=2.7e-07/(W) \
        nrd=2.7e-07/(W) m=(1)*(1) par1=((1)*(1)) xf_subext=0
V2 (net3 0) vsource dc=VGS type=dc
V1 (net4 0) vsource dc=VDS type=dc
simulatorOptions options psfversion="1.1.0" reltol=100e-6 vabstol=1e-6 \
    iabstol=1e-12 temp=27 tnom=27 homotopy=all limit=delta scalem=1.0 \
    scale=1.0 compatible=spice2 gmin=1e-12 rforce=1 maxnotes=5 maxwarns=5 \
    digits=5 cols=80 pivrel=1e-3 sensfile="../psf/sens.output" \
    checklimitdest=psf 
dcOp dc write="spectre.dc" maxiters=150 maxsteps=10000 annotate=status
dcOpInfo info what=oppoint where=rawfile
dc dc param=VDS start=0 stop=3.3 oppoint=rawfile maxiters=150 \
    maxsteps=10000 annotate=status
modelParameter info what=models where=rawfile
element info what=inst where=rawfile
outputParameter info what=output where=rawfile
designParamVals info what=parameters where=rawfile
primitives info what=primitives where=rawfile
subckts info what=subckts where=rawfile
save M1:1 
saveOptions options save=allpub
