// Generated for: spectre
// Generated on: Mar 12 15:37:53 2021
// Design library name: Device_Characteristics
// Design cell name: DC_BIAS_ne3
// Design view name: schematic
simulator lang=spectre
global 0
