// Generated for: spectre
// Generated on: Mar 19 16:38:51 2021
// Design library name: Stimulator_TestBench
// Design cell name: TB_HBridge_DC
// Design view name: schematic
simulator lang=spectre
global 0 vdd3! vdde!
