// Generated for: spectre
// Generated on: Mar 23 16:20:32 2021
// Design library name: Stimulator_TestBench
// Design cell name: TB_HBridge_DC
// Design view name: schematic
simulator lang=spectre
global 0 vdd3! vdde!
