// Generated for: spectre
// Generated on: Feb 14 23:54:51 2021
// Design library name: EMG_TestBench
// Design cell name: TB_ADC_EMG
// Design view name: config
simulator lang=spectre binding=vlog  
global 0
