// Generated for: spectre
// Generated on: Feb 17 19:54:40 2021
// Design library name: EMG_TestBench
// Design cell name: TB_ADC_EMG
// Design view name: config
simulator lang=spectre binding=vlog  
global 0
