// Generated for: spectre
// Generated on: Sep 30 15:17:50 2020
// Design library name: EMG_202009
// Design cell name: TB_MultiplexingADC_v2
// Design view name: config
simulator lang=spectre binding=vlog  
global 0
