** Schematic Netlist, pvs precompare
** 

.subckt LDDN D G S B 
.ends


.subckt LDDP D G S B 
.ends


.subckt MultiChannel_ST Ctrl_HS0 Ctrl_HS1 Ctrl_HS2 Ctrl_HS3 Ctrl_HS4 Ctrl_HS5 Ctrl_HS6 Ctrl_HS7 Ctrl_LS0 Ctrl_LS1 Ctrl_LS2 Ctrl_LS3 Ctrl_LS4 Ctrl_LS5 Ctrl_LS6 Ctrl_LS7 E0 E1 E2 E3 
+ E4 E5 E6 E7 Enable Iext Mag0 Mag1 Mag2 Mag3 Mag4 gnd! vdd3! vdde! vddh vdd! 
RXI18/XI0/RR0 Iext XI18/XI0/VG2 RPP1K1 W=2e-06 L=2.0095e-05 m=1 R=10001.1 
MXI18/XI0/MM2 XI18/XI0/VG1 XI18/XI0/VG1 gnd! gnd! NE3 W=8e-06 L=2e-06 m=1 
MXI18/XI0/MM2==2 XI18/XI0/VG1 XI18/XI0/VG1 gnd! gnd! NE3 W=8e-06 L=2e-06 m=1 
MXI18/XI0/MM2==3 XI18/XI0/VG1 XI18/XI0/VG1 gnd! gnd! NE3 W=8e-06 L=2e-06 m=1 
MXI18/XI0/MM2==4 XI18/XI0/VG1 XI18/XI0/VG1 gnd! gnd! NE3 W=8e-06 L=2e-06 m=1 
MXI18/XI0/MM2==5 XI18/XI0/VG1 XI18/XI0/VG1 gnd! gnd! NE3 W=8e-06 L=2e-06 m=1 
MXI18/XI0/MM0 XI18/XI0/VG2 XI18/XI0/VG2 XI18/XI0/VG1 gnd! NE3 W=8e-06 L=2e-06 m=1 
MXI18/XI0/MM0==2 XI18/XI0/VG2 XI18/XI0/VG2 XI18/XI0/VG1 gnd! NE3 W=8e-06 L=2e-06 m=1 
MXI18/XI0/MM0==3 XI18/XI0/VG2 XI18/XI0/VG2 XI18/XI0/VG1 gnd! NE3 W=8e-06 L=2e-06 m=1 
MXI18/XI0/MM0==4 XI18/XI0/VG2 XI18/XI0/VG2 XI18/XI0/VG1 gnd! NE3 W=8e-06 L=2e-06 m=1 
MXI18/XI0/MM0==5 XI18/XI0/VG2 XI18/XI0/VG2 XI18/XI0/VG1 gnd! NE3 W=8e-06 L=2e-06 m=1 
MXI18/XI0/MM3 XI18/XI0/VD_M1 XI18/XI0/VG1 gnd! gnd! NE3 W=8e-06 L=2e-06 m=1 
MXI18/XI0/MM3==2 XI18/XI0/VD_M1 XI18/XI0/VG1 gnd! gnd! NE3 W=8e-06 L=2e-06 m=1 
MXI18/XI0/MM3==3 XI18/XI0/VD_M1 XI18/XI0/VG1 gnd! gnd! NE3 W=8e-06 L=2e-06 m=1 
MXI18/XI0/MM3==4 XI18/XI0/VD_M1 XI18/XI0/VG1 gnd! gnd! NE3 W=8e-06 L=2e-06 m=1 
MXI18/XI0/MM3==5 XI18/XI0/VD_M1 XI18/XI0/VG1 gnd! gnd! NE3 W=8e-06 L=2e-06 m=1 
MXI18/XI0/MM1 XI18/Iref XI18/XI0/VG2 XI18/XI0/VD_M1 gnd! NE3 W=8e-06 L=2e-06 m=1 
MXI18/XI0/MM1==2 XI18/Iref XI18/XI0/VG2 XI18/XI0/VD_M1 gnd! NE3 W=8e-06 L=2e-06 m=1 
MXI18/XI0/MM1==3 XI18/Iref XI18/XI0/VG2 XI18/XI0/VD_M1 gnd! NE3 W=8e-06 L=2e-06 m=1 
MXI18/XI0/MM1==4 XI18/Iref XI18/XI0/VG2 XI18/XI0/VD_M1 gnd! NE3 W=8e-06 L=2e-06 m=1 
MXI18/XI0/MM1==5 XI18/Iref XI18/XI0/VG2 XI18/XI0/VD_M1 gnd! NE3 W=8e-06 L=2e-06 m=1 
MXI18/XI0/MM14 gnd! gnd! gnd! gnd! NE3 W=8e-06 L=2e-06 m=1 
MXI18/XI0/MM14==2 gnd! gnd! gnd! gnd! NE3 W=8e-06 L=2e-06 m=1 
MXI18/XI0/MM14==3 gnd! gnd! gnd! gnd! NE3 W=8e-06 L=2e-06 m=1 
MXI18/XI0/MM14==4 gnd! gnd! gnd! gnd! NE3 W=8e-06 L=2e-06 m=1 
MXI18/XI45/Xnand2_1/MMN1 XI18/XI45/net10 Enable XI18/XI45/Xnand2_1/net11 gnd! NE W=4.2e-07 L=1.8e-07 m=1 
MXI18/XI45/Xnand2_1/MMN2 XI18/XI45/Xnand2_1/net11 Mag0 gnd! gnd! NE W=4.2e-07 L=1.8e-07 m=1 
MXI18/XI45/Xnand2_1/MMP1 XI18/XI45/net10 Enable vdd! vdd! PE W=7.2e-07 L=1.8e-07 m=1 
MXI18/XI45/Xnand2_1/MMP2 XI18/XI45/net10 Mag0 vdd! vdd! PE W=7.2e-07 L=1.8e-07 m=1 
MXI18/XI45/Xinvr_1/Mne XI18/net05 XI18/XI45/net10 gnd! gnd! NE W=4.2e-07 L=1.8e-07 m=1 
MXI18/XI45/Xinvr_1/Mpe XI18/net05 XI18/XI45/net10 vdd! vdd! PE W=7.2e-07 L=1.8e-07 m=1 
MXI18/XI46/Xnand2_1/MMN1 XI18/XI46/net10 Enable XI18/XI46/Xnand2_1/net11 gnd! NE W=4.2e-07 L=1.8e-07 m=1 
MXI18/XI46/Xnand2_1/MMN2 XI18/XI46/Xnand2_1/net11 Mag1 gnd! gnd! NE W=4.2e-07 L=1.8e-07 m=1 
MXI18/XI46/Xnand2_1/MMP1 XI18/XI46/net10 Enable vdd! vdd! PE W=7.2e-07 L=1.8e-07 m=1 
MXI18/XI46/Xnand2_1/MMP2 XI18/XI46/net10 Mag1 vdd! vdd! PE W=7.2e-07 L=1.8e-07 m=1 
MXI18/XI46/Xinvr_1/Mne XI18/net07 XI18/XI46/net10 gnd! gnd! NE W=4.2e-07 L=1.8e-07 m=1 
MXI18/XI46/Xinvr_1/Mpe XI18/net07 XI18/XI46/net10 vdd! vdd! PE W=7.2e-07 L=1.8e-07 m=1 
MXI18/XI47/Xnand2_1/MMN1 XI18/XI47/net10 Enable XI18/XI47/Xnand2_1/net11 gnd! NE W=4.2e-07 L=1.8e-07 m=1 
MXI18/XI47/Xnand2_1/MMN2 XI18/XI47/Xnand2_1/net11 Mag2 gnd! gnd! NE W=4.2e-07 L=1.8e-07 m=1 
MXI18/XI47/Xnand2_1/MMP1 XI18/XI47/net10 Enable vdd! vdd! PE W=7.2e-07 L=1.8e-07 m=1 
MXI18/XI47/Xnand2_1/MMP2 XI18/XI47/net10 Mag2 vdd! vdd! PE W=7.2e-07 L=1.8e-07 m=1 
MXI18/XI47/Xinvr_1/Mne XI18/net09 XI18/XI47/net10 gnd! gnd! NE W=4.2e-07 L=1.8e-07 m=1 
MXI18/XI47/Xinvr_1/Mpe XI18/net09 XI18/XI47/net10 vdd! vdd! PE W=7.2e-07 L=1.8e-07 m=1 
MXI18/XI48/Xnand2_1/MMN1 XI18/XI48/net10 Enable XI18/XI48/Xnand2_1/net11 gnd! NE W=4.2e-07 L=1.8e-07 m=1 
MXI18/XI48/Xnand2_1/MMN2 XI18/XI48/Xnand2_1/net11 Mag3 gnd! gnd! NE W=4.2e-07 L=1.8e-07 m=1 
MXI18/XI48/Xnand2_1/MMP1 XI18/XI48/net10 Enable vdd! vdd! PE W=7.2e-07 L=1.8e-07 m=1 
MXI18/XI48/Xnand2_1/MMP2 XI18/XI48/net10 Mag3 vdd! vdd! PE W=7.2e-07 L=1.8e-07 m=1 
MXI18/XI48/Xinvr_1/Mne XI18/net011 XI18/XI48/net10 gnd! gnd! NE W=4.2e-07 L=1.8e-07 m=1 
MXI18/XI48/Xinvr_1/Mpe XI18/net011 XI18/XI48/net10 vdd! vdd! PE W=7.2e-07 L=1.8e-07 m=1 
MXI18/XI49/Xnand2_1/MMN1 XI18/XI49/net10 Enable XI18/XI49/Xnand2_1/net11 gnd! NE W=4.2e-07 L=1.8e-07 m=1 
MXI18/XI49/Xnand2_1/MMN2 XI18/XI49/Xnand2_1/net11 Mag4 gnd! gnd! NE W=4.2e-07 L=1.8e-07 m=1 
MXI18/XI49/Xnand2_1/MMP1 XI18/XI49/net10 Enable vdd! vdd! PE W=7.2e-07 L=1.8e-07 m=1 
MXI18/XI49/Xnand2_1/MMP2 XI18/XI49/net10 Mag4 vdd! vdd! PE W=7.2e-07 L=1.8e-07 m=1 
MXI18/XI49/Xinvr_1/Mne XI18/net013 XI18/XI49/net10 gnd! gnd! NE W=4.2e-07 L=1.8e-07 m=1 
MXI18/XI49/Xinvr_1/Mpe XI18/net013 XI18/XI49/net10 vdd! vdd! PE W=7.2e-07 L=1.8e-07 m=1 
RXI18/XI2/RR3 XI18/XI2/net030 gnd! RPP1K1 W=2e-06 L=0.00011122 m=1 R=54862.6 
RXI18/XI2/RR2 vdd3! gnd! RPP1K1 W=2e-06 L=0.00036998 m=1 R=182252 
RXI18/XI2/RR0 XI18/XI2/en_3v XI18/XI2/net030 RPP1K1 W=2e-06 L=0.00011122 m=1 R=54862.6 
MXI18/XI2/XI17/MM3 XI18/XI2/XI17/net20 Enable gnd! gnd! NE3 W=1.31e-06 L=3.5e-07 m=1 
MXI18/XI2/XI17/MM5 XI18/XI2/en_3v XI18/XI2/XI17/net20 gnd! gnd! NE3 W=1.78e-06 L=3.5e-07 m=1 
MXI18/XI2/XI17/MM7 XI18/XI2/XI17/net4 Enable gnd! gnd! NE3 W=4.2e-07 L=3.5e-07 m=1 
MXI18/XI2/XI17/MM1 XI18/XI2/XI17/net10 XI18/XI2/XI17/net4 gnd! gnd! NE3 W=1.31e-06 L=3.5e-07 m=1 
MXI18/XI2/XI17/MM6 XI18/XI2/en_3v XI18/XI2/XI17/net20 vdd3! vdd3! PE3 W=2.82e-06 L=3e-07 m=1 
MXI18/XI2/XI17/MM8 XI18/XI2/XI17/net4 Enable vdde! vdd3! PE3 W=1.47e-06 L=3e-07 m=1 
MXI18/XI2/XI17/MM9 XI18/XI2/XI17/net20 Enable XI18/XI2/XI17/net024 vdd3! PE3 W=4.2e-07 L=3e-07 m=1 
MXI18/XI2/XI17/MM0 XI18/XI2/XI17/net10 XI18/XI2/XI17/net4 XI18/XI2/XI17/net023 vdd3! PE3 W=4.2e-07 L=3e-07 m=1 
MXI18/XI2/XI17/MM2 XI18/XI2/XI17/net023 XI18/XI2/XI17/net20 vdd3! vdd3! PE3 W=4.2e-07 L=3e-07 m=1 
MXI18/XI2/XI17/MM4 XI18/XI2/XI17/net024 XI18/XI2/XI17/net10 vdd3! vdd3! PE3 W=4.2e-07 L=3e-07 m=1 
MXI18/XI2/XI0/MM26 XI18/net9 XI18/net9 gnd! gnd! NE3 W=1.2e-05 L=3e-06 m=1 
MXI18/XI2/XI0/MM26==2 XI18/net9 XI18/net9 gnd! gnd! NE3 W=1.2e-05 L=3e-06 m=1 
MXI18/XI2/XI0/MM26==3 XI18/net9 XI18/net9 gnd! gnd! NE3 W=1.2e-05 L=3e-06 m=1 
MXI18/XI2/XI0/MM26==4 XI18/net9 XI18/net9 gnd! gnd! NE3 W=1.2e-05 L=3e-06 m=1 
MXI18/XI2/XI0/MM26==5 XI18/net9 XI18/net9 gnd! gnd! NE3 W=1.2e-05 L=3e-06 m=1 
MXI18/XI2/XI0/MM26==6 XI18/net9 XI18/net9 gnd! gnd! NE3 W=1.2e-05 L=3e-06 m=1 
MXI18/XI2/XI0/MM13 XI18/XI2/Iout_LV XI18/net9 gnd! gnd! NE3 W=1.2e-05 L=3e-06 m=1 
MXI18/XI2/XI0/MM13==2 XI18/XI2/Iout_LV XI18/net9 gnd! gnd! NE3 W=1.2e-05 L=3e-06 m=1 
MXI18/XI2/XI0/MM13==3 XI18/XI2/Iout_LV XI18/net9 gnd! gnd! NE3 W=1.2e-05 L=3e-06 m=1 
MXI18/XI2/XI0/MM13==4 XI18/XI2/Iout_LV XI18/net9 gnd! gnd! NE3 W=1.2e-05 L=3e-06 m=1 
MXI18/XI2/XI0/MM13==5 XI18/XI2/Iout_LV XI18/net9 gnd! gnd! NE3 W=1.2e-05 L=3e-06 m=1 
MXI18/XI2/XI0/MM13==6 XI18/XI2/Iout_LV XI18/net9 gnd! gnd! NE3 W=1.2e-05 L=3e-06 m=1 
MXI18/XI2/XI0/MM13==7 XI18/XI2/Iout_LV XI18/net9 gnd! gnd! NE3 W=1.2e-05 L=3e-06 m=1 
MXI18/XI2/XI0/MM13==8 XI18/XI2/Iout_LV XI18/net9 gnd! gnd! NE3 W=1.2e-05 L=3e-06 m=1 
MXI18/XI2/XI0/MM13==9 XI18/XI2/Iout_LV XI18/net9 gnd! gnd! NE3 W=1.2e-05 L=3e-06 m=1 
MXI18/XI2/XI0/MM13==10 XI18/XI2/Iout_LV XI18/net9 gnd! gnd! NE3 W=1.2e-05 L=3e-06 m=1 
MXI18/XI2/XI0/MM13==11 XI18/XI2/Iout_LV XI18/net9 gnd! gnd! NE3 W=1.2e-05 L=3e-06 m=1 
MXI18/XI2/XI0/MM13==12 XI18/XI2/Iout_LV XI18/net9 gnd! gnd! NE3 W=1.2e-05 L=3e-06 m=1 
MXI18/XI2/XI0/MM13==13 XI18/XI2/Iout_LV XI18/net9 gnd! gnd! NE3 W=1.2e-05 L=3e-06 m=1 
MXI18/XI2/XI0/MM13==14 XI18/XI2/Iout_LV XI18/net9 gnd! gnd! NE3 W=1.2e-05 L=3e-06 m=1 
MXI18/XI2/XI0/MM13==15 XI18/XI2/Iout_LV XI18/net9 gnd! gnd! NE3 W=1.2e-05 L=3e-06 m=1 
MXI18/XI2/XI0/MM13==16 XI18/XI2/Iout_LV XI18/net9 gnd! gnd! NE3 W=1.2e-05 L=3e-06 m=1 
MXI18/XI2/XI0/MM13==17 XI18/XI2/Iout_LV XI18/net9 gnd! gnd! NE3 W=1.2e-05 L=3e-06 m=1 
MXI18/XI2/XI0/MM13==18 XI18/XI2/Iout_LV XI18/net9 gnd! gnd! NE3 W=1.2e-05 L=3e-06 m=1 
MXI18/XI2/XI0/MM13==19 XI18/XI2/Iout_LV XI18/net9 gnd! gnd! NE3 W=1.2e-05 L=3e-06 m=1 
MXI18/XI2/XI0/MM13==20 XI18/XI2/Iout_LV XI18/net9 gnd! gnd! NE3 W=1.2e-05 L=3e-06 m=1 
MXI18/XI2/XI0/MM13==21 XI18/XI2/Iout_LV XI18/net9 gnd! gnd! NE3 W=1.2e-05 L=3e-06 m=1 
MXI18/XI2/XI0/MM13==22 XI18/XI2/Iout_LV XI18/net9 gnd! gnd! NE3 W=1.2e-05 L=3e-06 m=1 
MXI18/XI2/XI0/MM13==23 XI18/XI2/Iout_LV XI18/net9 gnd! gnd! NE3 W=1.2e-05 L=3e-06 m=1 
MXI18/XI2/XI0/MM13==24 XI18/XI2/Iout_LV XI18/net9 gnd! gnd! NE3 W=1.2e-05 L=3e-06 m=1 
MXI18/XI2/XI0/MM13==25 XI18/XI2/Iout_LV XI18/net9 gnd! gnd! NE3 W=1.2e-05 L=3e-06 m=1 
MXI18/XI2/XI0/MM13==26 XI18/XI2/Iout_LV XI18/net9 gnd! gnd! NE3 W=1.2e-05 L=3e-06 m=1 
MXI18/XI2/XI0/MM13==27 XI18/XI2/Iout_LV XI18/net9 gnd! gnd! NE3 W=1.2e-05 L=3e-06 m=1 
MXI18/XI2/XI0/MM13==28 XI18/XI2/Iout_LV XI18/net9 gnd! gnd! NE3 W=1.2e-05 L=3e-06 m=1 
MXI18/XI2/XI0/MM13==29 XI18/XI2/Iout_LV XI18/net9 gnd! gnd! NE3 W=1.2e-05 L=3e-06 m=1 
MXI18/XI2/XI0/MM13==30 XI18/XI2/Iout_LV XI18/net9 gnd! gnd! NE3 W=1.2e-05 L=3e-06 m=1 
MXI18/XI2/XI0/MM13==31 XI18/XI2/Iout_LV XI18/net9 gnd! gnd! NE3 W=1.2e-05 L=3e-06 m=1 
MXI18/XI2/XI0/MM13==32 XI18/XI2/Iout_LV XI18/net9 gnd! gnd! NE3 W=1.2e-05 L=3e-06 m=1 
MXI18/XI2/XI0/MM13==33 XI18/XI2/Iout_LV XI18/net9 gnd! gnd! NE3 W=1.2e-05 L=3e-06 m=1 
MXI18/XI2/XI0/MM13==34 XI18/XI2/Iout_LV XI18/net9 gnd! gnd! NE3 W=1.2e-05 L=3e-06 m=1 
MXI18/XI2/XI0/MM13==35 XI18/XI2/Iout_LV XI18/net9 gnd! gnd! NE3 W=1.2e-05 L=3e-06 m=1 
MXI18/XI2/XI0/MM13==36 XI18/XI2/Iout_LV XI18/net9 gnd! gnd! NE3 W=1.2e-05 L=3e-06 m=1 
MXI18/XI2/XI0/MM13==37 XI18/XI2/Iout_LV XI18/net9 gnd! gnd! NE3 W=1.2e-05 L=3e-06 m=1 
MXI18/XI2/XI0/MM13==38 XI18/XI2/Iout_LV XI18/net9 gnd! gnd! NE3 W=1.2e-05 L=3e-06 m=1 
MXI18/XI2/XI0/MM13==39 XI18/XI2/Iout_LV XI18/net9 gnd! gnd! NE3 W=1.2e-05 L=3e-06 m=1 
MXI18/XI2/XI0/MM13==40 XI18/XI2/Iout_LV XI18/net9 gnd! gnd! NE3 W=1.2e-05 L=3e-06 m=1 
MXI18/XI2/XI0/MM13==41 XI18/XI2/Iout_LV XI18/net9 gnd! gnd! NE3 W=1.2e-05 L=3e-06 m=1 
MXI18/XI2/XI0/MM13==42 XI18/XI2/Iout_LV XI18/net9 gnd! gnd! NE3 W=1.2e-05 L=3e-06 m=1 
MXI18/XI2/XI0/MM13==43 XI18/XI2/Iout_LV XI18/net9 gnd! gnd! NE3 W=1.2e-05 L=3e-06 m=1 
MXI18/XI2/XI0/MM13==44 XI18/XI2/Iout_LV XI18/net9 gnd! gnd! NE3 W=1.2e-05 L=3e-06 m=1 
MXI18/XI2/XI0/MM13==45 XI18/XI2/Iout_LV XI18/net9 gnd! gnd! NE3 W=1.2e-05 L=3e-06 m=1 
MXI18/XI2/XI0/MM13==46 XI18/XI2/Iout_LV XI18/net9 gnd! gnd! NE3 W=1.2e-05 L=3e-06 m=1 
MXI18/XI2/XI0/MM13==47 XI18/XI2/Iout_LV XI18/net9 gnd! gnd! NE3 W=1.2e-05 L=3e-06 m=1 
MXI18/XI2/XI0/MM13==48 XI18/XI2/Iout_LV XI18/net9 gnd! gnd! NE3 W=1.2e-05 L=3e-06 m=1 
MXI18/XI2/XI0/MM13==49 XI18/XI2/Iout_LV XI18/net9 gnd! gnd! NE3 W=1.2e-05 L=3e-06 m=1 
MXI18/XI2/XI0/MM13==50 XI18/XI2/Iout_LV XI18/net9 gnd! gnd! NE3 W=1.2e-05 L=3e-06 m=1 
MXI18/XI2/XI0/MM13==51 XI18/XI2/Iout_LV XI18/net9 gnd! gnd! NE3 W=1.2e-05 L=3e-06 m=1 
MXI18/XI2/XI0/MM13==52 XI18/XI2/Iout_LV XI18/net9 gnd! gnd! NE3 W=1.2e-05 L=3e-06 m=1 
MXI18/XI2/XI0/MM13==53 XI18/XI2/Iout_LV XI18/net9 gnd! gnd! NE3 W=1.2e-05 L=3e-06 m=1 
MXI18/XI2/XI0/MM13==54 XI18/XI2/Iout_LV XI18/net9 gnd! gnd! NE3 W=1.2e-05 L=3e-06 m=1 
MXI18/XI2/XI0/MM13==55 XI18/XI2/Iout_LV XI18/net9 gnd! gnd! NE3 W=1.2e-05 L=3e-06 m=1 
MXI18/XI2/XI0/MM13==56 XI18/XI2/Iout_LV XI18/net9 gnd! gnd! NE3 W=1.2e-05 L=3e-06 m=1 
MXI18/XI2/XI0/MM13==57 XI18/XI2/Iout_LV XI18/net9 gnd! gnd! NE3 W=1.2e-05 L=3e-06 m=1 
MXI18/XI2/XI0/MM13==58 XI18/XI2/Iout_LV XI18/net9 gnd! gnd! NE3 W=1.2e-05 L=3e-06 m=1 
MXI18/XI2/XI0/MM13==59 XI18/XI2/Iout_LV XI18/net9 gnd! gnd! NE3 W=1.2e-05 L=3e-06 m=1 
MXI18/XI2/XI0/MM13==60 XI18/XI2/Iout_LV XI18/net9 gnd! gnd! NE3 W=1.2e-05 L=3e-06 m=1 
CXI18/XI2/CC5 vddh XI18/XI2/Vmid CSFT5A area=6.3936e-11 perimeter=3.372e-05 m=1 
CXI18/XI2/CC5==2 vddh XI18/XI2/Vmid CSFT5A area=6.3936e-11 perimeter=3.372e-05 m=1 
CXI18/XI2/CC5==3 vddh XI18/XI2/Vmid CSFT5A area=6.3936e-11 perimeter=3.372e-05 m=1 
CXI18/XI2/CC5==4 vddh XI18/XI2/Vmid CSFT5A area=6.3936e-11 perimeter=3.372e-05 m=1 
CXI18/XI2/CC5==5 vddh XI18/XI2/Vmid CSFT5A area=6.3936e-11 perimeter=3.372e-05 m=1 
CXI18/XI2/CC5==6 vddh XI18/XI2/Vmid CSFT5A area=6.3936e-11 perimeter=3.372e-05 m=1 
CXI18/XI2/CC5==7 vddh XI18/XI2/Vmid CSFT5A area=6.3936e-11 perimeter=3.372e-05 m=1 
CXI18/XI2/CC5==8 vddh XI18/XI2/Vmid CSFT5A area=6.3936e-11 perimeter=3.372e-05 m=1 
CXI18/XI2/CC5==9 vddh XI18/XI2/Vmid CSFT5A area=6.3936e-11 perimeter=3.372e-05 m=1 
CXI18/XI2/CC5==10 vddh XI18/XI2/Vmid CSFT5A area=6.3936e-11 perimeter=3.372e-05 m=1 
CXI18/XI2/CC5==11 vddh XI18/XI2/Vmid CSFT5A area=6.3936e-11 perimeter=3.372e-05 m=1 
CXI18/XI2/CC5==12 vddh XI18/XI2/Vmid CSFT5A area=6.3936e-11 perimeter=3.372e-05 m=1 
CXI18/XI2/CC5==13 vddh XI18/XI2/Vmid CSFT5A area=6.3936e-11 perimeter=3.372e-05 m=1 
CXI18/XI2/CC5==14 vddh XI18/XI2/Vmid CSFT5A area=6.3936e-11 perimeter=3.372e-05 m=1 
CXI18/XI2/CC5==15 vddh XI18/XI2/Vmid CSFT5A area=6.3936e-11 perimeter=3.372e-05 m=1 
CXI18/XI2/CC1 XI18/XI2/Vmid gnd! CSFT5A area=6.3936e-11 perimeter=3.372e-05 m=1 
CXI18/XI2/CC1==2 XI18/XI2/Vmid gnd! CSFT5A area=6.3936e-11 perimeter=3.372e-05 m=1 
CXI18/XI2/CC1==3 XI18/XI2/Vmid gnd! CSFT5A area=6.3936e-11 perimeter=3.372e-05 m=1 
CXI18/XI2/CC1==4 XI18/XI2/Vmid gnd! CSFT5A area=6.3936e-11 perimeter=3.372e-05 m=1 
CXI18/XI2/CC1==5 XI18/XI2/Vmid gnd! CSFT5A area=6.3936e-11 perimeter=3.372e-05 m=1 
CXI18/XI2/CC1==6 XI18/XI2/Vmid gnd! CSFT5A area=6.3936e-11 perimeter=3.372e-05 m=1 
CXI18/XI2/CC1==7 XI18/XI2/Vmid gnd! CSFT5A area=6.3936e-11 perimeter=3.372e-05 m=1 
CXI18/XI2/CC1==8 XI18/XI2/Vmid gnd! CSFT5A area=6.3936e-11 perimeter=3.372e-05 m=1 
CXI18/XI2/CC1==9 XI18/XI2/Vmid gnd! CSFT5A area=6.3936e-11 perimeter=3.372e-05 m=1 
CXI18/XI2/CC1==10 XI18/XI2/Vmid gnd! CSFT5A area=6.3936e-11 perimeter=3.372e-05 m=1 
CXI18/XI2/CC1==11 XI18/XI2/Vmid gnd! CSFT5A area=6.3936e-11 perimeter=3.372e-05 m=1 
CXI18/XI2/CC1==12 XI18/XI2/Vmid gnd! CSFT5A area=6.3936e-11 perimeter=3.372e-05 m=1 
CXI18/XI2/CC1==13 XI18/XI2/Vmid gnd! CSFT5A area=6.3936e-11 perimeter=3.372e-05 m=1 
CXI18/XI2/CC1==14 XI18/XI2/Vmid gnd! CSFT5A area=6.3936e-11 perimeter=3.372e-05 m=1 
CXI18/XI2/CC1==15 XI18/XI2/Vmid gnd! CSFT5A area=6.3936e-11 perimeter=3.372e-05 m=1 
CXI18/XI2/CC1==16 XI18/XI2/Vmid gnd! CSFT5A area=6.3936e-11 perimeter=3.372e-05 m=1 
CXI18/XI2/CC1==17 XI18/XI2/Vmid gnd! CSFT5A area=6.3936e-11 perimeter=3.372e-05 m=1 
CXI18/XI2/CC1==18 XI18/XI2/Vmid gnd! CSFT5A area=6.3936e-11 perimeter=3.372e-05 m=1 
CXI18/XI2/CC1==19 XI18/XI2/Vmid gnd! CSFT5A area=6.3936e-11 perimeter=3.372e-05 m=1 
CXI18/XI2/CC1==20 XI18/XI2/Vmid gnd! CSFT5A area=6.3936e-11 perimeter=3.372e-05 m=1 
CXI18/XI2/CC1==21 XI18/XI2/Vmid gnd! CSFT5A area=6.3936e-11 perimeter=3.372e-05 m=1 
CXI18/XI2/CC1==22 XI18/XI2/Vmid gnd! CSFT5A area=6.3936e-11 perimeter=3.372e-05 m=1 
CXI18/XI2/CC1==23 XI18/XI2/Vmid gnd! CSFT5A area=6.3936e-11 perimeter=3.372e-05 m=1 
CXI18/XI2/CC1==24 XI18/XI2/Vmid gnd! CSFT5A area=6.3936e-11 perimeter=3.372e-05 m=1 
CXI18/XI2/CC1==25 XI18/XI2/Vmid gnd! CSFT5A area=6.3936e-11 perimeter=3.372e-05 m=1 
CXI18/XI2/CC1==26 XI18/XI2/Vmid gnd! CSFT5A area=6.3936e-11 perimeter=3.372e-05 m=1 
CXI18/XI2/CC1==27 XI18/XI2/Vmid gnd! CSFT5A area=6.3936e-11 perimeter=3.372e-05 m=1 
CXI18/XI2/CC1==28 XI18/XI2/Vmid gnd! CSFT5A area=6.3936e-11 perimeter=3.372e-05 m=1 
CXI18/XI2/CC1==29 XI18/XI2/Vmid gnd! CSFT5A area=6.3936e-11 perimeter=3.372e-05 m=1 
CXI18/XI2/CC1==30 XI18/XI2/Vmid gnd! CSFT5A area=6.3936e-11 perimeter=3.372e-05 m=1 
CXI18/XI2/CC1==31 XI18/XI2/Vmid gnd! CSFT5A area=6.3936e-11 perimeter=3.372e-05 m=1 
CXI18/XI2/CC1==32 XI18/XI2/Vmid gnd! CSFT5A area=6.3936e-11 perimeter=3.372e-05 m=1 
CXI18/XI2/CC1==33 XI18/XI2/Vmid gnd! CSFT5A area=6.3936e-11 perimeter=3.372e-05 m=1 
CXI18/XI2/CC1==34 XI18/XI2/Vmid gnd! CSFT5A area=6.3936e-11 perimeter=3.372e-05 m=1 
CXI18/XI2/CC1==35 XI18/XI2/Vmid gnd! CSFT5A area=6.3936e-11 perimeter=3.372e-05 m=1 
CXI18/XI2/CC1==36 XI18/XI2/Vmid gnd! CSFT5A area=6.3936e-11 perimeter=3.372e-05 m=1 
CXI18/XI2/CC1==37 XI18/XI2/Vmid gnd! CSFT5A area=6.3936e-11 perimeter=3.372e-05 m=1 
CXI18/XI2/CC1==38 XI18/XI2/Vmid gnd! CSFT5A area=6.3936e-11 perimeter=3.372e-05 m=1 
CXI18/XI2/CC1==39 XI18/XI2/Vmid gnd! CSFT5A area=6.3936e-11 perimeter=3.372e-05 m=1 
CXI18/XI2/CC1==40 XI18/XI2/Vmid gnd! CSFT5A area=6.3936e-11 perimeter=3.372e-05 m=1 
CXI18/XI2/CC1==41 XI18/XI2/Vmid gnd! CSFT5A area=6.3936e-11 perimeter=3.372e-05 m=1 
CXI18/XI2/CC1==42 XI18/XI2/Vmid gnd! CSFT5A area=6.3936e-11 perimeter=3.372e-05 m=1 
CXI18/XI2/CC1==43 XI18/XI2/Vmid gnd! CSFT5A area=6.3936e-11 perimeter=3.372e-05 m=1 
CXI18/XI2/CC1==44 XI18/XI2/Vmid gnd! CSFT5A area=6.3936e-11 perimeter=3.372e-05 m=1 
CXI18/XI2/CC1==45 XI18/XI2/Vmid gnd! CSFT5A area=6.3936e-11 perimeter=3.372e-05 m=1 
MXI18/XI2/MM17 XI18/XI2/Iout_LV XI18/XI2/Vmid gnd! gnd! LDDN W=1e-05 L=1.25e-06 m=1 $[LDDN] 
MXI18/XI2/MM15 XI18/XI2/Vmid vdd3! gnd! gnd! LDDN W=1e-05 L=1.25e-06 m=1 $[LDDN] 
MXI18/XI2/MM14 XI18/XI2/Iout2 XI18/XI2/Iout2 XI18/XI2/VG1 gnd! LDDN W=4e-05 L=1.25e-06 m=1 $[LDDN] 
MXI18/XI2/MM8 XI18/XI2/Iout1 XI18/XI2/Iout1 XI18/XI2/VB gnd! LDDN W=8e-05 L=1.25e-06 m=1 $[LDDN] 
MXI18/XI2/MM16 XI18/XI2/Bias2 XI18/XI2/en_3v XI18/XI2/Iout_LV gnd! LDDN W=6e-05 L=1.25e-06 m=1 $[LDDN] 
MXI18/XI2/MM16==2 XI18/XI2/Bias2 XI18/XI2/en_3v XI18/XI2/Iout_LV gnd! LDDN W=6e-05 L=1.25e-06 m=1 $[LDDN] 
MXI18/XI2/MM16==3 XI18/XI2/Bias2 XI18/XI2/en_3v XI18/XI2/Iout_LV gnd! LDDN W=6e-05 L=1.25e-06 m=1 $[LDDN] 
MXI18/XI2/MM16==4 XI18/XI2/Bias2 XI18/XI2/en_3v XI18/XI2/Iout_LV gnd! LDDN W=6e-05 L=1.25e-06 m=1 $[LDDN] 
MXI18/XI2/MM16==5 XI18/XI2/Bias2 XI18/XI2/en_3v XI18/XI2/Iout_LV gnd! LDDN W=6e-05 L=1.25e-06 m=1 $[LDDN] 
MXI18/XI2/MM5 XI18/XI2/VG1 XI18/XI2/VB XI18/XI2/VD_M4 gnd! LDDN W=8e-05 L=1.25e-06 m=1 $[LDDN] 
MXI18/XI2/MM0 Ist XI18/XI2/VB XI18/XI2/VD_M3 gnd! LDDN W=8e-05 L=1.25e-06 m=1 $[LDDN] 
MXI18/XI2/MM0==2 Ist XI18/XI2/VB XI18/XI2/VD_M3 gnd! LDDN W=8e-05 L=1.25e-06 m=1 $[LDDN] 
MXI18/XI2/MM0==3 Ist XI18/XI2/VB XI18/XI2/VD_M3 gnd! LDDN W=8e-05 L=1.25e-06 m=1 $[LDDN] 
MXI18/XI2/MM0==4 Ist XI18/XI2/VB XI18/XI2/VD_M3 gnd! LDDN W=8e-05 L=1.25e-06 m=1 $[LDDN] 
MXI18/XI2/MM0==5 Ist XI18/XI2/VB XI18/XI2/VD_M3 gnd! LDDN W=8e-05 L=1.25e-06 m=1 $[LDDN] 
MXI18/XI2/MM0==6 Ist XI18/XI2/VB XI18/XI2/VD_M3 gnd! LDDN W=8e-05 L=1.25e-06 m=1 $[LDDN] 
MXI18/XI2/MM0==7 Ist XI18/XI2/VB XI18/XI2/VD_M3 gnd! LDDN W=8e-05 L=1.25e-06 m=1 $[LDDN] 
MXI18/XI2/MM0==8 Ist XI18/XI2/VB XI18/XI2/VD_M3 gnd! LDDN W=8e-05 L=1.25e-06 m=1 $[LDDN] 
MXI18/XI2/MM0==9 Ist XI18/XI2/VB XI18/XI2/VD_M3 gnd! LDDN W=8e-05 L=1.25e-06 m=1 $[LDDN] 
MXI18/XI2/MM0==10 Ist XI18/XI2/VB XI18/XI2/VD_M3 gnd! LDDN W=8e-05 L=1.25e-06 m=1 $[LDDN] 
MXI18/XI2/MM7 XI18/XI2/VB XI18/XI2/Iout1 XI18/XI2/net16 gnd! LDDN W=3.5e-05 L=1.25e-06 m=1 $[LDDN] 
MXI18/XI2/MM6 XI18/XI2/net16 XI18/XI2/net16 gnd! gnd! LDDN W=8e-05 L=1.25e-06 m=1 $[LDDN] 
MXI18/XI2/MM4 XI18/XI2/VD_M4 XI18/XI2/VG1 gnd! gnd! LDDN W=8e-05 L=1.25e-06 m=1 $[LDDN] 
MXI18/XI2/MM3 XI18/XI2/VD_M3 XI18/XI2/VG1 gnd! gnd! LDDN W=8e-05 L=1.25e-06 m=1 $[LDDN] 
MXI18/XI2/MM3==2 XI18/XI2/VD_M3 XI18/XI2/VG1 gnd! gnd! LDDN W=8e-05 L=1.25e-06 m=1 $[LDDN] 
MXI18/XI2/MM3==3 XI18/XI2/VD_M3 XI18/XI2/VG1 gnd! gnd! LDDN W=8e-05 L=1.25e-06 m=1 $[LDDN] 
MXI18/XI2/MM3==4 XI18/XI2/VD_M3 XI18/XI2/VG1 gnd! gnd! LDDN W=8e-05 L=1.25e-06 m=1 $[LDDN] 
MXI18/XI2/MM3==5 XI18/XI2/VD_M3 XI18/XI2/VG1 gnd! gnd! LDDN W=8e-05 L=1.25e-06 m=1 $[LDDN] 
MXI18/XI2/MM3==6 XI18/XI2/VD_M3 XI18/XI2/VG1 gnd! gnd! LDDN W=8e-05 L=1.25e-06 m=1 $[LDDN] 
MXI18/XI2/MM3==7 XI18/XI2/VD_M3 XI18/XI2/VG1 gnd! gnd! LDDN W=8e-05 L=1.25e-06 m=1 $[LDDN] 
MXI18/XI2/MM3==8 XI18/XI2/VD_M3 XI18/XI2/VG1 gnd! gnd! LDDN W=8e-05 L=1.25e-06 m=1 $[LDDN] 
MXI18/XI2/MM3==9 XI18/XI2/VD_M3 XI18/XI2/VG1 gnd! gnd! LDDN W=8e-05 L=1.25e-06 m=1 $[LDDN] 
MXI18/XI2/MM3==10 XI18/XI2/VD_M3 XI18/XI2/VG1 gnd! gnd! LDDN W=8e-05 L=1.25e-06 m=1 $[LDDN] 
MXI18/XI2/MM11 XI18/XI2/VD_M11 XI18/XI2/Bias1 vddh gnd! LDDP W=3e-05 L=9.4e-07 m=1 $[LDDP] 
MXI18/XI2/MM1 XI18/XI2/VD_M1 XI18/XI2/Bias1 vddh gnd! LDDP W=3e-05 L=9.4e-07 m=1 $[LDDP] 
MXI18/XI2/MM2 XI18/XI2/Bias1 XI18/XI2/Bias1 vddh gnd! LDDP W=3e-05 L=9.4e-07 m=1 $[LDDP] 
MXI18/XI2/MM12 XI18/XI2/Iout2 XI18/XI2/Bias2 XI18/XI2/VD_M11 gnd! LDDP W=3e-05 L=9.4e-07 m=1 $[LDDP] 
MXI18/XI2/MM10 XI18/XI2/Iout1 XI18/XI2/Bias2 XI18/XI2/VD_M1 gnd! LDDP W=3e-05 L=9.4e-07 m=1 $[LDDP] 
MXI18/XI2/MM9 XI18/XI2/Bias2 XI18/XI2/Bias2 XI18/XI2/Bias1 gnd! LDDP W=3e-05 L=9.4e-07 m=1 $[LDDP] 
MXI18/XI1/MM0 vdd3! vdd3! vdd3! vdd3! PE3 W=6e-06 L=2e-06 m=1 
MXI18/XI1/MM0==2 vdd3! vdd3! vdd3! vdd3! PE3 W=6e-06 L=2e-06 m=1 
MXI18/XI1/MM0==3 vdd3! vdd3! vdd3! vdd3! PE3 W=6e-06 L=2e-06 m=1 
MXI18/XI1/MM0==4 vdd3! vdd3! vdd3! vdd3! PE3 W=6e-06 L=2e-06 m=1 
MXI18/XI1/MM0==5 vdd3! vdd3! vdd3! vdd3! PE3 W=6e-06 L=2e-06 m=1 
MXI18/XI1/MM0==6 vdd3! vdd3! vdd3! vdd3! PE3 W=6e-06 L=2e-06 m=1 
MXI18/XI1/MM0==7 vdd3! vdd3! vdd3! vdd3! PE3 W=6e-06 L=2e-06 m=1 
MXI18/XI1/MM0==8 vdd3! vdd3! vdd3! vdd3! PE3 W=6e-06 L=2e-06 m=1 
MXI18/XI1/MM1 XI18/Iref XI18/Iref XI18/XI1/Vbias vdd3! PE3 W=6e-06 L=2e-06 m=1 
MXI18/XI1/MM1==2 XI18/Iref XI18/Iref XI18/XI1/Vbias vdd3! PE3 W=6e-06 L=2e-06 m=1 
MXI18/XI1/MM1==3 XI18/Iref XI18/Iref XI18/XI1/Vbias vdd3! PE3 W=6e-06 L=2e-06 m=1 
MXI18/XI1/MM1==4 XI18/Iref XI18/Iref XI18/XI1/Vbias vdd3! PE3 W=6e-06 L=2e-06 m=1 
MXI18/XI1/MM31 XI18/net9 XI18/D0_3v XI18/XI1/Ix1 vdd3! PE3 W=2e-06 L=3e-07 m=1 
MXI18/XI1/MM31==2 XI18/net9 XI18/D0_3v XI18/XI1/Ix1 vdd3! PE3 W=2e-06 L=3e-07 m=1 
MXI18/XI1/MM31==3 XI18/net9 XI18/D0_3v XI18/XI1/Ix1 vdd3! PE3 W=2e-06 L=3e-07 m=1 
MXI18/XI1/MM31==4 XI18/net9 XI18/D0_3v XI18/XI1/Ix1 vdd3! PE3 W=2e-06 L=3e-07 m=1 
MXI18/XI1/MM31==5 XI18/net9 XI18/D0_3v XI18/XI1/Ix1 vdd3! PE3 W=2e-06 L=3e-07 m=1 
MXI18/XI1/MM31==6 XI18/net9 XI18/D0_3v XI18/XI1/Ix1 vdd3! PE3 W=2e-06 L=3e-07 m=1 
MXI18/XI1/MM31==7 XI18/net9 XI18/D0_3v XI18/XI1/Ix1 vdd3! PE3 W=2e-06 L=3e-07 m=1 
MXI18/XI1/MM31==8 XI18/net9 XI18/D0_3v XI18/XI1/Ix1 vdd3! PE3 W=2e-06 L=3e-07 m=1 
MXI18/XI1/MM20 XI18/XI1/n1 XI18/XI1/Vbias vdd3! vdd3! PE3 W=6e-06 L=2e-06 m=1 
MXI18/XI1/MM20==2 XI18/XI1/n1 XI18/XI1/Vbias vdd3! vdd3! PE3 W=6e-06 L=2e-06 m=1 
MXI18/XI1/MM20==3 XI18/XI1/n1 XI18/XI1/Vbias vdd3! vdd3! PE3 W=6e-06 L=2e-06 m=1 
MXI18/XI1/MM20==4 XI18/XI1/n1 XI18/XI1/Vbias vdd3! vdd3! PE3 W=6e-06 L=2e-06 m=1 
MXI18/XI1/MM22 XI18/XI1/Ix1 XI18/Iref XI18/XI1/n1 vdd3! PE3 W=6e-06 L=2e-06 m=1 
MXI18/XI1/MM22==2 XI18/XI1/Ix1 XI18/Iref XI18/XI1/n1 vdd3! PE3 W=6e-06 L=2e-06 m=1 
MXI18/XI1/MM22==3 XI18/XI1/Ix1 XI18/Iref XI18/XI1/n1 vdd3! PE3 W=6e-06 L=2e-06 m=1 
MXI18/XI1/MM22==4 XI18/XI1/Ix1 XI18/Iref XI18/XI1/n1 vdd3! PE3 W=6e-06 L=2e-06 m=1 
MXI18/XI1/MM23 XI18/XI1/n2 XI18/XI1/Vbias vdd3! vdd3! PE3 W=6e-06 L=2e-06 m=1 
MXI18/XI1/MM23==2 XI18/XI1/n2 XI18/XI1/Vbias vdd3! vdd3! PE3 W=6e-06 L=2e-06 m=1 
MXI18/XI1/MM23==3 XI18/XI1/n2 XI18/XI1/Vbias vdd3! vdd3! PE3 W=6e-06 L=2e-06 m=1 
MXI18/XI1/MM23==4 XI18/XI1/n2 XI18/XI1/Vbias vdd3! vdd3! PE3 W=6e-06 L=2e-06 m=1 
MXI18/XI1/MM23==5 XI18/XI1/n2 XI18/XI1/Vbias vdd3! vdd3! PE3 W=6e-06 L=2e-06 m=1 
MXI18/XI1/MM23==6 XI18/XI1/n2 XI18/XI1/Vbias vdd3! vdd3! PE3 W=6e-06 L=2e-06 m=1 
MXI18/XI1/MM23==7 XI18/XI1/n2 XI18/XI1/Vbias vdd3! vdd3! PE3 W=6e-06 L=2e-06 m=1 
MXI18/XI1/MM23==8 XI18/XI1/n2 XI18/XI1/Vbias vdd3! vdd3! PE3 W=6e-06 L=2e-06 m=1 
MXI18/XI1/MM24 XI18/XI1/Ix2 XI18/Iref XI18/XI1/n2 vdd3! PE3 W=6e-06 L=2e-06 m=1 
MXI18/XI1/MM24==2 XI18/XI1/Ix2 XI18/Iref XI18/XI1/n2 vdd3! PE3 W=6e-06 L=2e-06 m=1 
MXI18/XI1/MM24==3 XI18/XI1/Ix2 XI18/Iref XI18/XI1/n2 vdd3! PE3 W=6e-06 L=2e-06 m=1 
MXI18/XI1/MM24==4 XI18/XI1/Ix2 XI18/Iref XI18/XI1/n2 vdd3! PE3 W=6e-06 L=2e-06 m=1 
MXI18/XI1/MM24==5 XI18/XI1/Ix2 XI18/Iref XI18/XI1/n2 vdd3! PE3 W=6e-06 L=2e-06 m=1 
MXI18/XI1/MM24==6 XI18/XI1/Ix2 XI18/Iref XI18/XI1/n2 vdd3! PE3 W=6e-06 L=2e-06 m=1 
MXI18/XI1/MM24==7 XI18/XI1/Ix2 XI18/Iref XI18/XI1/n2 vdd3! PE3 W=6e-06 L=2e-06 m=1 
MXI18/XI1/MM24==8 XI18/XI1/Ix2 XI18/Iref XI18/XI1/n2 vdd3! PE3 W=6e-06 L=2e-06 m=1 
MXI18/XI1/MM25 XI18/XI1/n3 XI18/XI1/Vbias vdd3! vdd3! PE3 W=6e-06 L=2e-06 m=1 
MXI18/XI1/MM25==2 XI18/XI1/n3 XI18/XI1/Vbias vdd3! vdd3! PE3 W=6e-06 L=2e-06 m=1 
MXI18/XI1/MM25==3 XI18/XI1/n3 XI18/XI1/Vbias vdd3! vdd3! PE3 W=6e-06 L=2e-06 m=1 
MXI18/XI1/MM25==4 XI18/XI1/n3 XI18/XI1/Vbias vdd3! vdd3! PE3 W=6e-06 L=2e-06 m=1 
MXI18/XI1/MM25==5 XI18/XI1/n3 XI18/XI1/Vbias vdd3! vdd3! PE3 W=6e-06 L=2e-06 m=1 
MXI18/XI1/MM25==6 XI18/XI1/n3 XI18/XI1/Vbias vdd3! vdd3! PE3 W=6e-06 L=2e-06 m=1 
MXI18/XI1/MM25==7 XI18/XI1/n3 XI18/XI1/Vbias vdd3! vdd3! PE3 W=6e-06 L=2e-06 m=1 
MXI18/XI1/MM25==8 XI18/XI1/n3 XI18/XI1/Vbias vdd3! vdd3! PE3 W=6e-06 L=2e-06 m=1 
MXI18/XI1/MM25==9 XI18/XI1/n3 XI18/XI1/Vbias vdd3! vdd3! PE3 W=6e-06 L=2e-06 m=1 
MXI18/XI1/MM25==10 XI18/XI1/n3 XI18/XI1/Vbias vdd3! vdd3! PE3 W=6e-06 L=2e-06 m=1 
MXI18/XI1/MM25==11 XI18/XI1/n3 XI18/XI1/Vbias vdd3! vdd3! PE3 W=6e-06 L=2e-06 m=1 
MXI18/XI1/MM25==12 XI18/XI1/n3 XI18/XI1/Vbias vdd3! vdd3! PE3 W=6e-06 L=2e-06 m=1 
MXI18/XI1/MM25==13 XI18/XI1/n3 XI18/XI1/Vbias vdd3! vdd3! PE3 W=6e-06 L=2e-06 m=1 
MXI18/XI1/MM25==14 XI18/XI1/n3 XI18/XI1/Vbias vdd3! vdd3! PE3 W=6e-06 L=2e-06 m=1 
MXI18/XI1/MM25==15 XI18/XI1/n3 XI18/XI1/Vbias vdd3! vdd3! PE3 W=6e-06 L=2e-06 m=1 
MXI18/XI1/MM25==16 XI18/XI1/n3 XI18/XI1/Vbias vdd3! vdd3! PE3 W=6e-06 L=2e-06 m=1 
MXI18/XI1/MM29 XI18/XI1/Ix4 XI18/Iref XI18/XI1/n3 vdd3! PE3 W=6e-06 L=2e-06 m=1 
MXI18/XI1/MM29==2 XI18/XI1/Ix4 XI18/Iref XI18/XI1/n3 vdd3! PE3 W=6e-06 L=2e-06 m=1 
MXI18/XI1/MM29==3 XI18/XI1/Ix4 XI18/Iref XI18/XI1/n3 vdd3! PE3 W=6e-06 L=2e-06 m=1 
MXI18/XI1/MM29==4 XI18/XI1/Ix4 XI18/Iref XI18/XI1/n3 vdd3! PE3 W=6e-06 L=2e-06 m=1 
MXI18/XI1/MM29==5 XI18/XI1/Ix4 XI18/Iref XI18/XI1/n3 vdd3! PE3 W=6e-06 L=2e-06 m=1 
MXI18/XI1/MM29==6 XI18/XI1/Ix4 XI18/Iref XI18/XI1/n3 vdd3! PE3 W=6e-06 L=2e-06 m=1 
MXI18/XI1/MM29==7 XI18/XI1/Ix4 XI18/Iref XI18/XI1/n3 vdd3! PE3 W=6e-06 L=2e-06 m=1 
MXI18/XI1/MM29==8 XI18/XI1/Ix4 XI18/Iref XI18/XI1/n3 vdd3! PE3 W=6e-06 L=2e-06 m=1 
MXI18/XI1/MM29==9 XI18/XI1/Ix4 XI18/Iref XI18/XI1/n3 vdd3! PE3 W=6e-06 L=2e-06 m=1 
MXI18/XI1/MM29==10 XI18/XI1/Ix4 XI18/Iref XI18/XI1/n3 vdd3! PE3 W=6e-06 L=2e-06 m=1 
MXI18/XI1/MM29==11 XI18/XI1/Ix4 XI18/Iref XI18/XI1/n3 vdd3! PE3 W=6e-06 L=2e-06 m=1 
MXI18/XI1/MM29==12 XI18/XI1/Ix4 XI18/Iref XI18/XI1/n3 vdd3! PE3 W=6e-06 L=2e-06 m=1 
MXI18/XI1/MM29==13 XI18/XI1/Ix4 XI18/Iref XI18/XI1/n3 vdd3! PE3 W=6e-06 L=2e-06 m=1 
MXI18/XI1/MM29==14 XI18/XI1/Ix4 XI18/Iref XI18/XI1/n3 vdd3! PE3 W=6e-06 L=2e-06 m=1 
MXI18/XI1/MM29==15 XI18/XI1/Ix4 XI18/Iref XI18/XI1/n3 vdd3! PE3 W=6e-06 L=2e-06 m=1 
MXI18/XI1/MM29==16 XI18/XI1/Ix4 XI18/Iref XI18/XI1/n3 vdd3! PE3 W=6e-06 L=2e-06 m=1 
MXI18/XI1/MM32 XI18/XI1/Ix8 XI18/Iref XI18/XI1/n4 vdd3! PE3 W=6e-06 L=2e-06 m=1 
MXI18/XI1/MM32==2 XI18/XI1/Ix8 XI18/Iref XI18/XI1/n4 vdd3! PE3 W=6e-06 L=2e-06 m=1 
MXI18/XI1/MM32==3 XI18/XI1/Ix8 XI18/Iref XI18/XI1/n4 vdd3! PE3 W=6e-06 L=2e-06 m=1 
MXI18/XI1/MM32==4 XI18/XI1/Ix8 XI18/Iref XI18/XI1/n4 vdd3! PE3 W=6e-06 L=2e-06 m=1 
MXI18/XI1/MM32==5 XI18/XI1/Ix8 XI18/Iref XI18/XI1/n4 vdd3! PE3 W=6e-06 L=2e-06 m=1 
MXI18/XI1/MM32==6 XI18/XI1/Ix8 XI18/Iref XI18/XI1/n4 vdd3! PE3 W=6e-06 L=2e-06 m=1 
MXI18/XI1/MM32==7 XI18/XI1/Ix8 XI18/Iref XI18/XI1/n4 vdd3! PE3 W=6e-06 L=2e-06 m=1 
MXI18/XI1/MM32==8 XI18/XI1/Ix8 XI18/Iref XI18/XI1/n4 vdd3! PE3 W=6e-06 L=2e-06 m=1 
MXI18/XI1/MM32==9 XI18/XI1/Ix8 XI18/Iref XI18/XI1/n4 vdd3! PE3 W=6e-06 L=2e-06 m=1 
MXI18/XI1/MM32==10 XI18/XI1/Ix8 XI18/Iref XI18/XI1/n4 vdd3! PE3 W=6e-06 L=2e-06 m=1 
MXI18/XI1/MM32==11 XI18/XI1/Ix8 XI18/Iref XI18/XI1/n4 vdd3! PE3 W=6e-06 L=2e-06 m=1 
MXI18/XI1/MM32==12 XI18/XI1/Ix8 XI18/Iref XI18/XI1/n4 vdd3! PE3 W=6e-06 L=2e-06 m=1 
MXI18/XI1/MM32==13 XI18/XI1/Ix8 XI18/Iref XI18/XI1/n4 vdd3! PE3 W=6e-06 L=2e-06 m=1 
MXI18/XI1/MM32==14 XI18/XI1/Ix8 XI18/Iref XI18/XI1/n4 vdd3! PE3 W=6e-06 L=2e-06 m=1 
MXI18/XI1/MM32==15 XI18/XI1/Ix8 XI18/Iref XI18/XI1/n4 vdd3! PE3 W=6e-06 L=2e-06 m=1 
MXI18/XI1/MM32==16 XI18/XI1/Ix8 XI18/Iref XI18/XI1/n4 vdd3! PE3 W=6e-06 L=2e-06 m=1 
MXI18/XI1/MM32==17 XI18/XI1/Ix8 XI18/Iref XI18/XI1/n4 vdd3! PE3 W=6e-06 L=2e-06 m=1 
MXI18/XI1/MM32==18 XI18/XI1/Ix8 XI18/Iref XI18/XI1/n4 vdd3! PE3 W=6e-06 L=2e-06 m=1 
MXI18/XI1/MM32==19 XI18/XI1/Ix8 XI18/Iref XI18/XI1/n4 vdd3! PE3 W=6e-06 L=2e-06 m=1 
MXI18/XI1/MM32==20 XI18/XI1/Ix8 XI18/Iref XI18/XI1/n4 vdd3! PE3 W=6e-06 L=2e-06 m=1 
MXI18/XI1/MM32==21 XI18/XI1/Ix8 XI18/Iref XI18/XI1/n4 vdd3! PE3 W=6e-06 L=2e-06 m=1 
MXI18/XI1/MM32==22 XI18/XI1/Ix8 XI18/Iref XI18/XI1/n4 vdd3! PE3 W=6e-06 L=2e-06 m=1 
MXI18/XI1/MM32==23 XI18/XI1/Ix8 XI18/Iref XI18/XI1/n4 vdd3! PE3 W=6e-06 L=2e-06 m=1 
MXI18/XI1/MM32==24 XI18/XI1/Ix8 XI18/Iref XI18/XI1/n4 vdd3! PE3 W=6e-06 L=2e-06 m=1 
MXI18/XI1/MM32==25 XI18/XI1/Ix8 XI18/Iref XI18/XI1/n4 vdd3! PE3 W=6e-06 L=2e-06 m=1 
MXI18/XI1/MM32==26 XI18/XI1/Ix8 XI18/Iref XI18/XI1/n4 vdd3! PE3 W=6e-06 L=2e-06 m=1 
MXI18/XI1/MM32==27 XI18/XI1/Ix8 XI18/Iref XI18/XI1/n4 vdd3! PE3 W=6e-06 L=2e-06 m=1 
MXI18/XI1/MM32==28 XI18/XI1/Ix8 XI18/Iref XI18/XI1/n4 vdd3! PE3 W=6e-06 L=2e-06 m=1 
MXI18/XI1/MM32==29 XI18/XI1/Ix8 XI18/Iref XI18/XI1/n4 vdd3! PE3 W=6e-06 L=2e-06 m=1 
MXI18/XI1/MM32==30 XI18/XI1/Ix8 XI18/Iref XI18/XI1/n4 vdd3! PE3 W=6e-06 L=2e-06 m=1 
MXI18/XI1/MM32==31 XI18/XI1/Ix8 XI18/Iref XI18/XI1/n4 vdd3! PE3 W=6e-06 L=2e-06 m=1 
MXI18/XI1/MM32==32 XI18/XI1/Ix8 XI18/Iref XI18/XI1/n4 vdd3! PE3 W=6e-06 L=2e-06 m=1 
MXI18/XI1/MM33 XI18/XI1/n4 XI18/XI1/Vbias vdd3! vdd3! PE3 W=6e-06 L=2e-06 m=1 
MXI18/XI1/MM33==2 XI18/XI1/n4 XI18/XI1/Vbias vdd3! vdd3! PE3 W=6e-06 L=2e-06 m=1 
MXI18/XI1/MM33==3 XI18/XI1/n4 XI18/XI1/Vbias vdd3! vdd3! PE3 W=6e-06 L=2e-06 m=1 
MXI18/XI1/MM33==4 XI18/XI1/n4 XI18/XI1/Vbias vdd3! vdd3! PE3 W=6e-06 L=2e-06 m=1 
MXI18/XI1/MM33==5 XI18/XI1/n4 XI18/XI1/Vbias vdd3! vdd3! PE3 W=6e-06 L=2e-06 m=1 