** Layout Netlist, pvs precompare
** 

.subckt LDDN D G S B 
.ends


.subckt LDDP D G S B 
.ends


.subckt MultiChannel_ST Ctrl_HS0 Ctrl_HS1 Ctrl_HS2 Ctrl_HS3 Ctrl_HS4 Ctrl_HS5 Ctrl_HS6 Ctrl_HS7 Ctrl_LS0 Ctrl_LS1 Ctrl_LS2 Ctrl_LS3 Ctrl_LS4 Ctrl_LS5 Ctrl_LS6 Ctrl_LS7 E0 E1 E2 E3 
+ E4 E5 E6 E7 Enable Iext Mag0 Mag1 Mag2 Mag3 Mag4 gnd! vdd! vdd3! vdde! vddh 
MX203/X119/X150/M0 gnd! gnd! gnd! gnd! NE3 L=2e-06 W=8e-06 m=1 
MX203/X119/X151/M0 gnd! gnd! gnd! gnd! NE3 L=2e-06 W=8e-06 m=1 
MX203/X119/X152/M0 X203/23 X203/X119/5 X203/X119/4 gnd! NE3 L=2e-06 W=8e-06 m=1 
MX203/X119/X153/M0 X203/X119/5 X203/X119/5 X203/X119/6 gnd! NE3 L=2e-06 W=8e-06 m=1 
MX203/X119/X154/M0 X203/X119/4 X203/X119/6 gnd! gnd! NE3 L=2e-06 W=8e-06 m=1 
MX203/X119/X155/M0 X203/X119/6 X203/X119/6 gnd! gnd! NE3 L=2e-06 W=8e-06 m=1 
MX203/X119/X156/M0 X203/X119/5 X203/X119/5 X203/X119/6 gnd! NE3 L=2e-06 W=8e-06 m=1 
MX203/X119/X157/M0 X203/23 X203/X119/5 X203/X119/4 gnd! NE3 L=2e-06 W=8e-06 m=1 
MX203/X119/X158/M0 X203/X119/6 X203/X119/6 gnd! gnd! NE3 L=2e-06 W=8e-06 m=1 
MX203/X119/X159/M0 X203/X119/4 X203/X119/6 gnd! gnd! NE3 L=2e-06 W=8e-06 m=1 
MX203/X119/X160/M0 X203/23 X203/X119/5 X203/X119/4 gnd! NE3 L=2e-06 W=8e-06 m=1 
MX203/X119/X161/M0 X203/X119/5 X203/X119/5 X203/X119/6 gnd! NE3 L=2e-06 W=8e-06 m=1 
MX203/X119/X162/M0 X203/X119/4 X203/X119/6 gnd! gnd! NE3 L=2e-06 W=8e-06 m=1 
MX203/X119/X163/M0 X203/X119/6 X203/X119/6 gnd! gnd! NE3 L=2e-06 W=8e-06 m=1 
MX203/X119/X164/M0 X203/X119/5 X203/X119/5 X203/X119/6 gnd! NE3 L=2e-06 W=8e-06 m=1 
MX203/X119/X165/M0 X203/23 X203/X119/5 X203/X119/4 gnd! NE3 L=2e-06 W=8e-06 m=1 
MX203/X119/X166/M0 X203/X119/6 X203/X119/6 gnd! gnd! NE3 L=2e-06 W=8e-06 m=1 
MX203/X119/X167/M0 X203/X119/4 X203/X119/6 gnd! gnd! NE3 L=2e-06 W=8e-06 m=1 
MX203/X119/X168/M0 X203/23 X203/X119/5 X203/X119/4 gnd! NE3 L=2e-06 W=8e-06 m=1 
MX203/X119/X169/M0 X203/X119/5 X203/X119/5 X203/X119/6 gnd! NE3 L=2e-06 W=8e-06 m=1 
MX203/X119/X170/M0 X203/X119/4 X203/X119/6 gnd! gnd! NE3 L=2e-06 W=8e-06 m=1 
MX203/X119/X171/M0 X203/X119/6 X203/X119/6 gnd! gnd! NE3 L=2e-06 W=8e-06 m=1 
MX203/X119/X172/M0 gnd! gnd! gnd! gnd! NE3 L=2e-06 W=8e-06 m=1 
MX203/X119/X173/M0 gnd! gnd! gnd! gnd! NE3 L=2e-06 W=8e-06 m=1 
RX203/X119/X174/R0 Iext X203/X119/5 RPP1K1 R=0 L=2.0095e-05 W=2e-06 m=1 
MX203/X122/X1139/M0 X203/25 X203/14 X203/X122/11 vdd3! PE3 L=3e-07 W=2e-06 m=1 
MX203/X122/X1139/M1 X203/X122/11 X203/14 X203/25 vdd3! PE3 L=3e-07 W=2e-06 m=1 
MX203/X122/X1139/M2 X203/25 X203/14 X203/X122/11 vdd3! PE3 L=3e-07 W=2e-06 m=1 
MX203/X122/X1139/M3 X203/X122/11 X203/14 X203/25 vdd3! PE3 L=3e-07 W=2e-06 m=1 
MX203/X122/X1139/M4 X203/25 X203/14 X203/X122/11 vdd3! PE3 L=3e-07 W=2e-06 m=1 
MX203/X122/X1139/M5 X203/X122/11 X203/14 X203/25 vdd3! PE3 L=3e-07 W=2e-06 m=1 
MX203/X122/X1139/M6 X203/25 X203/14 X203/X122/11 vdd3! PE3 L=3e-07 W=2e-06 m=1 
MX203/X122/X1139/M7 X203/X122/11 X203/14 X203/25 vdd3! PE3 L=3e-07 W=2e-06 m=1 
MX203/X122/X1140/M0 X203/25 X203/15 X203/X122/13 vdd3! PE3 L=3e-07 W=2e-06 m=1 
MX203/X122/X1140/M1 X203/X122/13 X203/15 X203/25 vdd3! PE3 L=3e-07 W=2e-06 m=1 
MX203/X122/X1140/M2 X203/25 X203/15 X203/X122/13 vdd3! PE3 L=3e-07 W=2e-06 m=1 
MX203/X122/X1140/M3 X203/X122/13 X203/15 X203/25 vdd3! PE3 L=3e-07 W=2e-06 m=1 
MX203/X122/X1140/M4 X203/25 X203/15 X203/X122/13 vdd3! PE3 L=3e-07 W=2e-06 m=1 
MX203/X122/X1140/M5 X203/X122/13 X203/15 X203/25 vdd3! PE3 L=3e-07 W=2e-06 m=1 
MX203/X122/X1140/M6 X203/25 X203/15 X203/X122/13 vdd3! PE3 L=3e-07 W=2e-06 m=1 
MX203/X122/X1140/M7 X203/X122/13 X203/15 X203/25 vdd3! PE3 L=3e-07 W=2e-06 m=1 
MX203/X122/X1141/M0 X203/25 X203/16 X203/X122/15 vdd3! PE3 L=3e-07 W=2e-06 m=1 
MX203/X122/X1141/M1 X203/X122/15 X203/16 X203/25 vdd3! PE3 L=3e-07 W=2e-06 m=1 
MX203/X122/X1141/M2 X203/25 X203/16 X203/X122/15 vdd3! PE3 L=3e-07 W=2e-06 m=1 
MX203/X122/X1141/M3 X203/X122/15 X203/16 X203/25 vdd3! PE3 L=3e-07 W=2e-06 m=1 
MX203/X122/X1141/M4 X203/25 X203/16 X203/X122/15 vdd3! PE3 L=3e-07 W=2e-06 m=1 
MX203/X122/X1141/M5 X203/X122/15 X203/16 X203/25 vdd3! PE3 L=3e-07 W=2e-06 m=1 
MX203/X122/X1141/M6 X203/25 X203/16 X203/X122/15 vdd3! PE3 L=3e-07 W=2e-06 m=1 
MX203/X122/X1141/M7 X203/X122/15 X203/16 X203/25 vdd3! PE3 L=3e-07 W=2e-06 m=1 
MX203/X122/X1142/M0 X203/25 X203/17 X203/X122/17 vdd3! PE3 L=3e-07 W=2e-06 m=1 
MX203/X122/X1142/M1 X203/X122/17 X203/17 X203/25 vdd3! PE3 L=3e-07 W=2e-06 m=1 
MX203/X122/X1142/M2 X203/25 X203/17 X203/X122/17 vdd3! PE3 L=3e-07 W=2e-06 m=1 
MX203/X122/X1142/M3 X203/X122/17 X203/17 X203/25 vdd3! PE3 L=3e-07 W=2e-06 m=1 
MX203/X122/X1142/M4 X203/25 X203/17 X203/X122/17 vdd3! PE3 L=3e-07 W=2e-06 m=1 
MX203/X122/X1142/M5 X203/X122/17 X203/17 X203/25 vdd3! PE3 L=3e-07 W=2e-06 m=1 
MX203/X122/X1142/M6 X203/25 X203/17 X203/X122/17 vdd3! PE3 L=3e-07 W=2e-06 m=1 
MX203/X122/X1142/M7 X203/X122/17 X203/17 X203/25 vdd3! PE3 L=3e-07 W=2e-06 m=1 
MX203/X122/X1143/M0 X203/25 X203/18 X203/X122/19 vdd3! PE3 L=3e-07 W=2e-06 m=1 
MX203/X122/X1143/M1 X203/X122/19 X203/18 X203/25 vdd3! PE3 L=3e-07 W=2e-06 m=1 
MX203/X122/X1143/M2 X203/25 X203/18 X203/X122/19 vdd3! PE3 L=3e-07 W=2e-06 m=1 
MX203/X122/X1143/M3 X203/X122/19 X203/18 X203/25 vdd3! PE3 L=3e-07 W=2e-06 m=1 
MX203/X122/X1143/M4 X203/25 X203/18 X203/X122/19 vdd3! PE3 L=3e-07 W=2e-06 m=1 
MX203/X122/X1143/M5 X203/X122/19 X203/18 X203/25 vdd3! PE3 L=3e-07 W=2e-06 m=1 
MX203/X122/X1143/M6 X203/25 X203/18 X203/X122/19 vdd3! PE3 L=3e-07 W=2e-06 m=1 
MX203/X122/X1143/M7 X203/X122/19 X203/18 X203/25 vdd3! PE3 L=3e-07 W=2e-06 m=1 
MX203/X122/X1144/M0 vdd3! vdd3! vdd3! vdd3! PE3 L=2e-06 W=6e-06 m=1 
MX203/X122/X1145/M0 vdd3! vdd3! vdd3! vdd3! PE3 L=2e-06 W=6e-06 m=1 
MX203/X122/X1146/M0 vdd3! vdd3! vdd3! vdd3! PE3 L=2e-06 W=6e-06 m=1 
MX203/X122/X1147/M0 vdd3! vdd3! vdd3! vdd3! PE3 L=2e-06 W=6e-06 m=1 
MX203/X122/X1148/M0 X203/X122/19 X203/23 X203/X122/18 vdd3! PE3 L=2e-06 W=6e-06 m=1 
MX203/X122/X1149/M0 X203/X122/17 X203/23 X203/X122/16 vdd3! PE3 L=2e-06 W=6e-06 m=1 
MX203/X122/X1150/M0 X203/X122/17 X203/23 X203/X122/16 vdd3! PE3 L=2e-06 W=6e-06 m=1 
MX203/X122/X1151/M0 X203/X122/19 X203/23 X203/X122/18 vdd3! PE3 L=2e-06 W=6e-06 m=1 
MX203/X122/X1152/M0 X203/X122/18 X203/X122/20 vdd3! vdd3! PE3 L=2e-06 W=6e-06 m=1 
MX203/X122/X1153/M0 X203/X122/16 X203/X122/20 vdd3! vdd3! PE3 L=2e-06 W=6e-06 m=1 
MX203/X122/X1154/M0 X203/X122/16 X203/X122/20 vdd3! vdd3! PE3 L=2e-06 W=6e-06 m=1 
MX203/X122/X1155/M0 X203/X122/18 X203/X122/20 vdd3! vdd3! PE3 L=2e-06 W=6e-06 m=1 
MX203/X122/X1156/M0 X203/X122/19 X203/23 X203/X122/18 vdd3! PE3 L=2e-06 W=6e-06 m=1 
MX203/X122/X1157/M0 X203/X122/19 X203/23 X203/X122/18 vdd3! PE3 L=2e-06 W=6e-06 m=1 
MX203/X122/X1158/M0 X203/X122/19 X203/23 X203/X122/18 vdd3! PE3 L=2e-06 W=6e-06 m=1 
MX203/X122/X1159/M0 X203/X122/19 X203/23 X203/X122/18 vdd3! PE3 L=2e-06 W=6e-06 m=1 
MX203/X122/X1160/M0 X203/X122/18 X203/X122/20 vdd3! vdd3! PE3 L=2e-06 W=6e-06 m=1 
MX203/X122/X1161/M0 X203/X122/18 X203/X122/20 vdd3! vdd3! PE3 L=2e-06 W=6e-06 m=1 
MX203/X122/X1162/M0 X203/X122/18 X203/X122/20 vdd3! vdd3! PE3 L=2e-06 W=6e-06 m=1 
MX203/X122/X1163/M0 X203/X122/18 X203/X122/20 vdd3! vdd3! PE3 L=2e-06 W=6e-06 m=1 
MX203/X122/X1164/M0 X203/X122/19 X203/23 X203/X122/18 vdd3! PE3 L=2e-06 W=6e-06 m=1 
MX203/X122/X1165/M0 X203/X122/17 X203/23 X203/X122/16 vdd3! PE3 L=2e-06 W=6e-06 m=1 
MX203/X122/X1166/M0 X203/X122/17 X203/23 X203/X122/16 vdd3! PE3 L=2e-06 W=6e-06 m=1 
MX203/X122/X1167/M0 X203/X122/19 X203/23 X203/X122/18 vdd3! PE3 L=2e-06 W=6e-06 m=1 
MX203/X122/X1168/M0 X203/X122/18 X203/X122/20 vdd3! vdd3! PE3 L=2e-06 W=6e-06 m=1 
MX203/X122/X1169/M0 X203/X122/16 X203/X122/20 vdd3! vdd3! PE3 L=2e-06 W=6e-06 m=1 
MX203/X122/X1170/M0 X203/X122/16 X203/X122/20 vdd3! vdd3! PE3 L=2e-06 W=6e-06 m=1 
MX203/X122/X1171/M0 X203/X122/18 X203/X122/20 vdd3! vdd3! PE3 L=2e-06 W=6e-06 m=1 
MX203/X122/X1172/M0 X203/X122/19 X203/23 X203/X122/18 vdd3! PE3 L=2e-06 W=6e-06 m=1 
MX203/X122/X1173/M0 X203/X122/19 X203/23 X203/X122/18 vdd3! PE3 L=2e-06 W=6e-06 m=1 
MX203/X122/X1174/M0 X203/X122/19 X203/23 X203/X122/18 vdd3! PE3 L=2e-06 W=6e-06 m=1 
MX203/X122/X1175/M0 X203/X122/19 X203/23 X203/X122/18 vdd3! PE3 L=2e-06 W=6e-06 m=1 
MX203/X122/X1176/M0 X203/X122/18 X203/X122/20 vdd3! vdd3! PE3 L=2e-06 W=6e-06 m=1 
MX203/X122/X1177/M0 X203/X122/18 X203/X122/20 vdd3! vdd3! PE3 L=2e-06 W=6e-06 m=1 
MX203/X122/X1178/M0 X203/X122/18 X203/X122/20 vdd3! vdd3! PE3 L=2e-06 W=6e-06 m=1 
MX203/X122/X1179/M0 X203/X122/18 X203/X122/20 vdd3! vdd3! PE3 L=2e-06 W=6e-06 m=1 
MX203/X122/X1180/M0 X203/X122/19 X203/23 X203/X122/18 vdd3! PE3 L=2e-06 W=6e-06 m=1 
MX203/X122/X1181/M0 X203/X122/17 X203/23 X203/X122/16 vdd3! PE3 L=2e-06 W=6e-06 m=1 
MX203/X122/X1182/M0 X203/X122/17 X203/23 X203/X122/16 vdd3! PE3 L=2e-06 W=6e-06 m=1 
MX203/X122/X1183/M0 X203/X122/19 X203/23 X203/X122/18 vdd3! PE3 L=2e-06 W=6e-06 m=1 
MX203/X122/X1184/M0 X203/X122/18 X203/X122/20 vdd3! vdd3! PE3 L=2e-06 W=6e-06 m=1 
MX203/X122/X1185/M0 X203/X122/16 X203/X122/20 vdd3! vdd3! PE3 L=2e-06 W=6e-06 m=1 
MX203/X122/X1186/M0 X203/X122/16 X203/X122/20 vdd3! vdd3! PE3 L=2e-06 W=6e-06 m=1 
MX203/X122/X1187/M0 X203/X122/18 X203/X122/20 vdd3! vdd3! PE3 L=2e-06 W=6e-06 m=1 
MX203/X122/X1188/M0 X203/X122/19 X203/23 X203/X122/18 vdd3! PE3 L=2e-06 W=6e-06 m=1 
MX203/X122/X1189/M0 X203/X122/19 X203/23 X203/X122/18 vdd3! PE3 L=2e-06 W=6e-06 m=1 
MX203/X122/X1190/M0 X203/X122/19 X203/23 X203/X122/18 vdd3! PE3 L=2e-06 W=6e-06 m=1 
MX203/X122/X1191/M0 X203/X122/19 X203/23 X203/X122/18 vdd3! PE3 L=2e-06 W=6e-06 m=1 
MX203/X122/X1192/M0 X203/X122/18 X203/X122/20 vdd3! vdd3! PE3 L=2e-06 W=6e-06 m=1 
MX203/X122/X1193/M0 X203/X122/18 X203/X122/20 vdd3! vdd3! PE3 L=2e-06 W=6e-06 m=1 
MX203/X122/X1194/M0 X203/X122/18 X203/X122/20 vdd3! vdd3! PE3 L=2e-06 W=6e-06 m=1 
MX203/X122/X1195/M0 X203/X122/18 X203/X122/20 vdd3! vdd3! PE3 L=2e-06 W=6e-06 m=1 
MX203/X122/X1196/M0 X203/X122/19 X203/23 X203/X122/18 vdd3! PE3 L=2e-06 W=6e-06 m=1 
MX203/X122/X1197/M0 X203/X122/17 X203/23 X203/X122/16 vdd3! PE3 L=2e-06 W=6e-06 m=1 
MX203/X122/X1198/M0 X203/X122/17 X203/23 X203/X122/16 vdd3! PE3 L=2e-06 W=6e-06 m=1 
MX203/X122/X1199/M0 X203/X122/19 X203/23 X203/X122/18 vdd3! PE3 L=2e-06 W=6e-06 m=1 
MX203/X122/X1200/M0 X203/X122/18 X203/X122/20 vdd3! vdd3! PE3 L=2e-06 W=6e-06 m=1 
MX203/X122/X1201/M0 X203/X122/16 X203/X122/20 vdd3! vdd3! PE3 L=2e-06 W=6e-06 m=1 
MX203/X122/X1202/M0 X203/X122/16 X203/X122/20 vdd3! vdd3! PE3 L=2e-06 W=6e-06 m=1 
MX203/X122/X1203/M0 X203/X122/18 X203/X122/20 vdd3! vdd3! PE3 L=2e-06 W=6e-06 m=1 
MX203/X122/X1204/M0 X203/X122/19 X203/23 X203/X122/18 vdd3! PE3 L=2e-06 W=6e-06 m=1 
MX203/X122/X1205/M0 X203/X122/15 X203/23 X203/X122/14 vdd3! PE3 L=2e-06 W=6e-06 m=1 
MX203/X122/X1206/M0 X203/X122/15 X203/23 X203/X122/14 vdd3! PE3 L=2e-06 W=6e-06 m=1 
MX203/X122/X1207/M0 X203/X122/19 X203/23 X203/X122/18 vdd3! PE3 L=2e-06 W=6e-06 m=1 
MX203/X122/X1208/M0 X203/X122/18 X203/X122/20 vdd3! vdd3! PE3 L=2e-06 W=6e-06 m=1 
MX203/X122/X1209/M0 X203/X122/14 X203/X122/20 vdd3! vdd3! PE3 L=2e-06 W=6e-06 m=1 
MX203/X122/X1210/M0 X203/X122/14 X203/X122/20 vdd3! vdd3! PE3 L=2e-06 W=6e-06 m=1 
MX203/X122/X1211/M0 X203/X122/18 X203/X122/20 vdd3! vdd3! PE3 L=2e-06 W=6e-06 m=1 
MX203/X122/X1212/M0 X203/X122/19 X203/23 X203/X122/18 vdd3! PE3 L=2e-06 W=6e-06 m=1 
MX203/X122/X1213/M0 X203/X122/17 X203/23 X203/X122/16 vdd3! PE3 L=2e-06 W=6e-06 m=1 
MX203/X122/X1214/M0 X203/X122/17 X203/23 X203/X122/16 vdd3! PE3 L=2e-06 W=6e-06 m=1 
MX203/X122/X1215/M0 X203/X122/19 X203/23 X203/X122/18 vdd3! PE3 L=2e-06 W=6e-06 m=1 
MX203/X122/X1216/M0 X203/X122/18 X203/X122/20 vdd3! vdd3! PE3 L=2e-06 W=6e-06 m=1 
MX203/X122/X1217/M0 X203/X122/16 X203/X122/20 vdd3! vdd3! PE3 L=2e-06 W=6e-06 m=1 
MX203/X122/X1218/M0 X203/X122/16 X203/X122/20 vdd3! vdd3! PE3 L=2e-06 W=6e-06 m=1 
MX203/X122/X1219/M0 X203/X122/18 X203/X122/20 vdd3! vdd3! PE3 L=2e-06 W=6e-06 m=1 
MX203/X122/X1220/M0 X203/X122/19 X203/23 X203/X122/18 vdd3! PE3 L=2e-06 W=6e-06 m=1 
MX203/X122/X1221/M0 X203/X122/15 X203/23 X203/X122/14 vdd3! PE3 L=2e-06 W=6e-06 m=1 
MX203/X122/X1222/M0 X203/X122/15 X203/23 X203/X122/14 vdd3! PE3 L=2e-06 W=6e-06 m=1 
MX203/X122/X1223/M0 X203/X122/19 X203/23 X203/X122/18 vdd3! PE3 L=2e-06 W=6e-06 m=1 
MX203/X122/X1224/M0 X203/X122/18 X203/X122/20 vdd3! vdd3! PE3 L=2e-06 W=6e-06 m=1 
MX203/X122/X1225/M0 X203/X122/14 X203/X122/20 vdd3! vdd3! PE3 L=2e-06 W=6e-06 m=1 
MX203/X122/X1226/M0 X203/X122/14 X203/X122/20 vdd3! vdd3! PE3 L=2e-06 W=6e-06 m=1 
MX203/X122/X1227/M0 X203/X122/18 X203/X122/20 vdd3! vdd3! PE3 L=2e-06 W=6e-06 m=1 
MX203/X122/X1228/M0 X203/X122/19 X203/23 X203/X122/18 vdd3! PE3 L=2e-06 W=6e-06 m=1 
MX203/X122/X1229/M0 X203/X122/17 X203/23 X203/X122/16 vdd3! PE3 L=2e-06 W=6e-06 m=1 
MX203/X122/X1230/M0 X203/X122/17 X203/23 X203/X122/16 vdd3! PE3 L=2e-06 W=6e-06 m=1 
MX203/X122/X1231/M0 X203/X122/19 X203/23 X203/X122/18 vdd3! PE3 L=2e-06 W=6e-06 m=1 
MX203/X122/X1232/M0 X203/X122/18 X203/X122/20 vdd3! vdd3! PE3 L=2e-06 W=6e-06 m=1 
MX203/X122/X1233/M0 X203/X122/16 X203/X122/20 vdd3! vdd3! PE3 L=2e-06 W=6e-06 m=1 
MX203/X122/X1234/M0 X203/X122/16 X203/X122/20 vdd3! vdd3! PE3 L=2e-06 W=6e-06 m=1 
MX203/X122/X1235/M0 X203/X122/18 X203/X122/20 vdd3! vdd3! PE3 L=2e-06 W=6e-06 m=1 
MX203/X122/X1236/M0 X203/X122/19 X203/23 X203/X122/18 vdd3! PE3 L=2e-06 W=6e-06 m=1 
MX203/X122/X1237/M0 X203/X122/15 X203/23 X203/X122/14 vdd3! PE3 L=2e-06 W=6e-06 m=1 
MX203/X122/X1238/M0 X203/X122/15 X203/23 X203/X122/14 vdd3! PE3 L=2e-06 W=6e-06 m=1 
MX203/X122/X1239/M0 X203/X122/19 X203/23 X203/X122/18 vdd3! PE3 L=2e-06 W=6e-06 m=1 
MX203/X122/X1240/M0 X203/X122/18 X203/X122/20 vdd3! vdd3! PE3 L=2e-06 W=6e-06 m=1 
MX203/X122/X1241/M0 X203/X122/14 X203/X122/20 vdd3! vdd3! PE3 L=2e-06 W=6e-06 m=1 
MX203/X122/X1242/M0 X203/X122/14 X203/X122/20 vdd3! vdd3! PE3 L=2e-06 W=6e-06 m=1 
MX203/X122/X1243/M0 X203/X122/18 X203/X122/20 vdd3! vdd3! PE3 L=2e-06 W=6e-06 m=1 
MX203/X122/X1244/M0 X203/X122/19 X203/23 X203/X122/18 vdd3! PE3 L=2e-06 W=6e-06 m=1 
MX203/X122/X1245/M0 X203/X122/17 X203/23 X203/X122/16 vdd3! PE3 L=2e-06 W=6e-06 m=1 
MX203/X122/X1246/M0 X203/X122/17 X203/23 X203/X122/16 vdd3! PE3 L=2e-06 W=6e-06 m=1 
MX203/X122/X1247/M0 X203/X122/19 X203/23 X203/X122/18 vdd3! PE3 L=2e-06 W=6e-06 m=1 
MX203/X122/X1248/M0 X203/X122/18 X203/X122/20 vdd3! vdd3! PE3 L=2e-06 W=6e-06 m=1 
MX203/X122/X1249/M0 X203/X122/16 X203/X122/20 vdd3! vdd3! PE3 L=2e-06 W=6e-06 m=1 
MX203/X122/X1250/M0 X203/X122/16 X203/X122/20 vdd3! vdd3! PE3 L=2e-06 W=6e-06 m=1 
MX203/X122/X1251/M0 X203/X122/18 X203/X122/20 vdd3! vdd3! PE3 L=2e-06 W=6e-06 m=1 
MX203/X122/X1252/M0 X203/X122/17 X203/23 X203/X122/16 vdd3! PE3 L=2e-06 W=6e-06 m=1 
MX203/X122/X1253/M0 X203/X122/15 X203/23 X203/X122/14 vdd3! PE3 L=2e-06 W=6e-06 m=1 
MX203/X122/X1254/M0 X203/X122/15 X203/23 X203/X122/14 vdd3! PE3 L=2e-06 W=6e-06 m=1 
MX203/X122/X1255/M0 X203/X122/17 X203/23 X203/X122/16 vdd3! PE3 L=2e-06 W=6e-06 m=1 
MX203/X122/X1256/M0 X203/X122/16 X203/X122/20 vdd3! vdd3! PE3 L=2e-06 W=6e-06 m=1 
MX203/X122/X1257/M0 X203/X122/14 X203/X122/20 vdd3! vdd3! PE3 L=2e-06 W=6e-06 m=1 
MX203/X122/X1258/M0 X203/X122/14 X203/X122/20 vdd3! vdd3! PE3 L=2e-06 W=6e-06 m=1 
MX203/X122/X1259/M0 X203/X122/16 X203/X122/20 vdd3! vdd3! PE3 L=2e-06 W=6e-06 m=1 
MX203/X122/X1260/M0 X203/X122/11 X203/23 X203/X122/10 vdd3! PE3 L=2e-06 W=6e-06 m=1 
MX203/X122/X1261/M0 X203/X122/13 X203/23 X203/X122/12 vdd3! PE3 L=2e-06 W=6e-06 m=1 
MX203/X122/X1262/M0 X203/X122/13 X203/23 X203/X122/12 vdd3! PE3 L=2e-06 W=6e-06 m=1 
MX203/X122/X1263/M0 X203/X122/11 X203/23 X203/X122/10 vdd3! PE3 L=2e-06 W=6e-06 m=1 
MX203/X122/X1264/M0 X203/X122/10 X203/X122/20 vdd3! vdd3! PE3 L=2e-06 W=6e-06 m=1 
MX203/X122/X1265/M0 X203/X122/12 X203/X122/20 vdd3! vdd3! PE3 L=2e-06 W=6e-06 m=1 
MX203/X122/X1266/M0 X203/X122/12 X203/X122/20 vdd3! vdd3! PE3 L=2e-06 W=6e-06 m=1 
MX203/X122/X1267/M0 X203/X122/10 X203/X122/20 vdd3! vdd3! PE3 L=2e-06 W=6e-06 m=1 
MX203/X122/X1268/M0 X203/X122/13 X203/23 X203/X122/12 vdd3! PE3 L=2e-06 W=6e-06 m=1 
MX203/X122/X1269/M0 X203/23 X203/23 X203/X122/20 vdd3! PE3 L=2e-06 W=6e-06 m=1 
MX203/X122/X1270/M0 X203/23 X203/23 X203/X122/20 vdd3! PE3 L=2e-06 W=6e-06 m=1 
MX203/X122/X1271/M0 X203/X122/13 X203/23 X203/X122/12 vdd3! PE3 L=2e-06 W=6e-06 m=1 
MX203/X122/X1272/M0 X203/X122/12 X203/X122/20 vdd3! vdd3! PE3 L=2e-06 W=6e-06 m=1 
MX203/X122/X1273/M0 X203/X122/20 X203/X122/20 vdd3! vdd3! PE3 L=2e-06 W=6e-06 m=1 
MX203/X122/X1274/M0 X203/X122/20 X203/X122/20 vdd3! vdd3! PE3 L=2e-06 W=6e-06 m=1 
MX203/X122/X1275/M0 X203/X122/12 X203/X122/20 vdd3! vdd3! PE3 L=2e-06 W=6e-06 m=1 
MX203/X122/X1276/M0 X203/X122/13 X203/23 X203/X122/12 vdd3! PE3 L=2e-06 W=6e-06 m=1 
MX203/X122/X1277/M0 X203/23 X203/23 X203/X122/20 vdd3! PE3 L=2e-06 W=6e-06 m=1 
MX203/X122/X1278/M0 X203/23 X203/23 X203/X122/20 vdd3! PE3 L=2e-06 W=6e-06 m=1 
MX203/X122/X1279/M0 X203/X122/13 X203/23 X203/X122/12 vdd3! PE3 L=2e-06 W=6e-06 m=1 
MX203/X122/X1280/M0 X203/X122/12 X203/X122/20 vdd3! vdd3! PE3 L=2e-06 W=6e-06 m=1 
MX203/X122/X1281/M0 X203/X122/20 X203/X122/20 vdd3! vdd3! PE3 L=2e-06 W=6e-06 m=1 
MX203/X122/X1282/M0 X203/X122/20 X203/X122/20 vdd3! vdd3! PE3 L=2e-06 W=6e-06 m=1 
MX203/X122/X1283/M0 X203/X122/12 X203/X122/20 vdd3! vdd3! PE3 L=2e-06 W=6e-06 m=1 
MX203/X122/X1284/M0 X203/X122/11 X203/23 X203/X122/10 vdd3! PE3 L=2e-06 W=6e-06 m=1 
MX203/X122/X1285/M0 X203/X122/13 X203/23 X203/X122/12 vdd3! PE3 L=2e-06 W=6e-06 m=1 
MX203/X122/X1286/M0 X203/X122/13 X203/23 X203/X122/12 vdd3! PE3 L=2e-06 W=6e-06 m=1 
MX203/X122/X1287/M0 X203/X122/11 X203/23 X203/X122/10 vdd3! PE3 L=2e-06 W=6e-06 m=1 
MX203/X122/X1288/M0 X203/X122/10 X203/X122/20 vdd3! vdd3! PE3 L=2e-06 W=6e-06 m=1 
MX203/X122/X1289/M0 X203/X122/12 X203/X122/20 vdd3! vdd3! PE3 L=2e-06 W=6e-06 m=1 
MX203/X122/X1290/M0 X203/X122/12 X203/X122/20 vdd3! vdd3! PE3 L=2e-06 W=6e-06 m=1 
MX203/X122/X1291/M0 X203/X122/10 X203/X122/20 vdd3! vdd3! PE3 L=2e-06 W=6e-06 m=1 
MX203/X122/X1292/M0 X203/X122/16 X203/X122/20 vdd3! vdd3! PE3 L=2e-06 W=6e-06 m=1 
MX203/X122/X1293/M0 X203/X122/14 X203/X122/20 vdd3! vdd3! PE3 L=2e-06 W=6e-06 m=1 
MX203/X122/X1294/M0 X203/X122/14 X203/X122/20 vdd3! vdd3! PE3 L=2e-06 W=6e-06 m=1 
MX203/X122/X1295/M0 X203/X122/16 X203/X122/20 vdd3! vdd3! PE3 L=2e-06 W=6e-06 m=1 
MX203/X122/X1296/M0 X203/X122/18 X203/X122/20 vdd3! vdd3! PE3 L=2e-06 W=6e-06 m=1 
MX203/X122/X1297/M0 X203/X122/16 X203/X122/20 vdd3! vdd3! PE3 L=2e-06 W=6e-06 m=1 
MX203/X122/X1298/M0 X203/X122/16 X203/X122/20 vdd3! vdd3! PE3 L=2e-06 W=6e-06 m=1 
MX203/X122/X1299/M0 X203/X122/18 X203/X122/20 vdd3! vdd3! PE3 L=2e-06 W=6e-06 m=1 
MX203/X122/X1300/M0 X203/X122/18 X203/X122/20 vdd3! vdd3! PE3 L=2e-06 W=6e-06 m=1 
MX203/X122/X1301/M0 X203/X122/14 X203/X122/20 vdd3! vdd3! PE3 L=2e-06 W=6e-06 m=1 
MX203/X122/X1302/M0 X203/X122/14 X203/X122/20 vdd3! vdd3! PE3 L=2e-06 W=6e-06 m=1 
MX203/X122/X1303/M0 X203/X122/18 X203/X122/20 vdd3! vdd3! PE3 L=2e-06 W=6e-06 m=1 
MX203/X122/X1304/M0 X203/X122/18 X203/X122/20 vdd3! vdd3! PE3 L=2e-06 W=6e-06 m=1 
MX203/X122/X1305/M0 X203/X122/16 X203/X122/20 vdd3! vdd3! PE3 L=2e-06 W=6e-06 m=1 
MX203/X122/X1306/M0 X203/X122/16 X203/X122/20 vdd3! vdd3! PE3 L=2e-06 W=6e-06 m=1 
MX203/X122/X1307/M0 X203/X122/18 X203/X122/20 vdd3! vdd3! PE3 L=2e-06 W=6e-06 m=1 
MX203/X122/X1308/M0 X203/X122/18 X203/X122/20 vdd3! vdd3! PE3 L=2e-06 W=6e-06 m=1 
MX203/X122/X1309/M0 X203/X122/18 X203/X122/20 vdd3! vdd3! PE3 L=2e-06 W=6e-06 m=1 
MX203/X122/X1310/M0 X203/X122/18 X203/X122/20 vdd3! vdd3! PE3 L=2e-06 W=6e-06 m=1 
MX203/X122/X1311/M0 X203/X122/18 X203/X122/20 vdd3! vdd3! PE3 L=2e-06 W=6e-06 m=1 
MX203/X122/X1312/M0 X203/X122/19 X203/23 X203/X122/18 vdd3! PE3 L=2e-06 W=6e-06 m=1 
MX203/X122/X1313/M0 X203/X122/19 X203/23 X203/X122/18 vdd3! PE3 L=2e-06 W=6e-06 m=1 
MX203/X122/X1314/M0 X203/X122/19 X203/23 X203/X122/18 vdd3! PE3 L=2e-06 W=6e-06 m=1 
MX203/X122/X1315/M0 X203/X122/19 X203/23 X203/X122/18 vdd3! PE3 L=2e-06 W=6e-06 m=1 
MX203/X122/X1316/M0 X203/X122/19 X203/23 X203/X122/18 vdd3! PE3 L=2e-06 W=6e-06 m=1 
MX203/X122/X1317/M0 X203/X122/17 X203/23 X203/X122/16 vdd3! PE3 L=2e-06 W=6e-06 m=1 
MX203/X122/X1318/M0 X203/X122/17 X203/23 X203/X122/16 vdd3! PE3 L=2e-06 W=6e-06 m=1 
MX203/X122/X1319/M0 X203/X122/19 X203/23 X203/X122/18 vdd3! PE3 L=2e-06 W=6e-06 m=1 
MX203/X122/X1320/M0 X203/X122/18 X203/X122/20 vdd3! vdd3! PE3 L=2e-06 W=6e-06 m=1 
MX203/X122/X1321/M0 X203/X122/16 X203/X122/20 vdd3! vdd3! PE3 L=2e-06 W=6e-06 m=1 
MX203/X122/X1322/M0 X203/X122/16 X203/X122/20 vdd3! vdd3! PE3 L=2e-06 W=6e-06 m=1 
MX203/X122/X1323/M0 X203/X122/18 X203/X122/20 vdd3! vdd3! PE3 L=2e-06 W=6e-06 m=1 
MX203/X122/X1324/M0 vdd3! vdd3! vdd3! vdd3! PE3 L=2e-06 W=6e-06 m=1 
MX203/X122/X1325/M0 vdd3! vdd3! vdd3! vdd3! PE3 L=2e-06 W=6e-06 m=1 
MX203/X122/X1326/M0 vdd3! vdd3! vdd3! vdd3! PE3 L=2e-06 W=6e-06 m=1 
MX203/X122/X1327/M0 vdd3! vdd3! vdd3! vdd3! PE3 L=2e-06 W=6e-06 m=1 
MX203/X122/X1328/X0/M0 X203/X122/17 X203/23 X203/X122/16 vdd3! PE3 L=2e-06 W=6e-06 m=1 
MX203/X122/X1328/X1/M0 X203/X122/19 X203/23 X203/X122/18 vdd3! PE3 L=2e-06 W=6e-06 m=1 
MX203/X122/X1328/X2/M0 X203/X122/19 X203/23 X203/X122/18 vdd3! PE3 L=2e-06 W=6e-06 m=1 
MX203/X122/X1328/X3/M0 X203/X122/19 X203/23 X203/X122/18 vdd3! PE3 L=2e-06 W=6e-06 m=1 
MX203/X122/X1329/X0/M0 X203/X122/15 X203/23 X203/X122/14 vdd3! PE3 L=2e-06 W=6e-06 m=1 
MX203/X122/X1329/X1/M0 X203/X122/17 X203/23 X203/X122/16 vdd3! PE3 L=2e-06 W=6e-06 m=1 
MX203/X122/X1329/X2/M0 X203/X122/15 X203/23 X203/X122/14 vdd3! PE3 L=2e-06 W=6e-06 m=1 
MX203/X122/X1329/X3/M0 X203/X122/17 X203/23 X203/X122/16 vdd3! PE3 L=2e-06 W=6e-06 m=1 
MX203/X122/X1330/X0/M0 X203/X122/15 X203/23 X203/X122/14 vdd3! PE3 L=2e-06 W=6e-06 m=1 
MX203/X122/X1330/X1/M0 X203/X122/17 X203/23 X203/X122/16 vdd3! PE3 L=2e-06 W=6e-06 m=1 
MX203/X122/X1330/X2/M0 X203/X122/15 X203/23 X203/X122/14 vdd3! PE3 L=2e-06 W=6e-06 m=1 
MX203/X122/X1330/X3/M0 X203/X122/17 X203/23 X203/X122/16 vdd3! PE3 L=2e-06 W=6e-06 m=1 
MX203/X122/X1331/X0/M0 X203/X122/17 X203/23 X203/X122/16 vdd3! PE3 L=2e-06 W=6e-06 m=1 
MX203/X122/X1331/X1/M0 X203/X122/19 X203/23 X203/X122/18 vdd3! PE3 L=2e-06 W=6e-06 m=1 
MX203/X122/X1331/X2/M0 X203/X122/19 X203/23 X203/X122/18 vdd3! PE3 L=2e-06 W=6e-06 m=1 
MX203/X122/X1331/X3/M0 X203/X122/19 X203/23 X203/X122/18 vdd3! PE3 L=2e-06 W=6e-06 m=1 
MX203/X122/X1332/X0/M0 X203/X122/18 X203/X122/20 vdd3! vdd3! PE3 L=2e-06 W=6e-06 m=1 
MX203/X122/X1332/X1/M0 X203/X122/18 X203/X122/20 vdd3! vdd3! PE3 L=2e-06 W=6e-06 m=1 
MX203/X122/X1332/X2/M0 X203/X122/18 X203/X122/20 vdd3! vdd3! PE3 L=2e-06 W=6e-06 m=1 
MX203/X122/X1332/X3/M0 X203/X122/18 X203/X122/20 vdd3! vdd3! PE3 L=2e-06 W=6e-06 m=1 
MX203/X122/X1333/X0/M0 X203/X122/16 X203/X122/20 vdd3! vdd3! PE3 L=2e-06 W=6e-06 m=1 
MX203/X122/X1333/X1/M0 X203/X122/14 X203/X122/20 vdd3! vdd3! PE3 L=2e-06 W=6e-06 m=1 
MX203/X122/X1333/X2/M0 X203/X122/16 X203/X122/20 vdd3! vdd3! PE3 L=2e-06 W=6e-06 m=1 
MX203/X122/X1333/X3/M0 X203/X122/14 X203/X122/20 vdd3! vdd3! PE3 L=2e-06 W=6e-06 m=1 
MX203/X122/X1334/X0/M0 X203/X122/16 X203/X122/20 vdd3! vdd3! PE3 L=2e-06 W=6e-06 m=1 
MX203/X122/X1334/X1/M0 X203/X122/14 X203/X122/20 vdd3! vdd3! PE3 L=2e-06 W=6e-06 m=1 
MX203/X122/X1334/X2/M0 X203/X122/16 X203/X122/20 vdd3! vdd3! PE3 L=2e-06 W=6e-06 m=1 
MX203/X122/X1334/X3/M0 X203/X122/14 X203/X122/20 vdd3! vdd3! PE3 L=2e-06 W=6e-06 m=1 
MX203/X122/X1335/X0/M0 X203/X122/18 X203/X122/20 vdd3! vdd3! PE3 L=2e-06 W=6e-06 m=1 
MX203/X122/X1335/X1/M0 X203/X122/18 X203/X122/20 vdd3! vdd3! PE3 L=2e-06 W=6e-06 m=1 
MX203/X122/X1335/X2/M0 X203/X122/18 X203/X122/20 vdd3! vdd3! PE3 L=2e-06 W=6e-06 m=1 
MX203/X122/X1335/X3/M0 X203/X122/18 X203/X122/20 vdd3! vdd3! PE3 L=2e-06 W=6e-06 m=1 
MX203/X122/X1336/X0/M0 X203/X122/19 X203/23 X203/X122/18 vdd3! PE3 L=2e-06 W=6e-06 m=1 
MX203/X122/X1336/X1/M0 X203/X122/19 X203/23 X203/X122/18 vdd3! PE3 L=2e-06 W=6e-06 m=1 
MX203/X122/X1336/X2/M0 X203/X122/19 X203/23 X203/X122/18 vdd3! PE3 L=2e-06 W=6e-06 m=1 
MX203/X122/X1336/X3/M0 X203/X122/19 X203/23 X203/X122/18 vdd3! PE3 L=2e-06 W=6e-06 m=1 
MX203/X122/X1337/X0/M0 X203/X122/15 X203/23 X203/X122/14 vdd3! PE3 L=2e-06 W=6e-06 m=1 
MX203/X122/X1337/X1/M0 X203/X122/17 X203/23 X203/X122/16 vdd3! PE3 L=2e-06 W=6e-06 m=1 
MX203/X122/X1337/X2/M0 X203/X122/15 X203/23 X203/X122/14 vdd3! PE3 L=2e-06 W=6e-06 m=1 
MX203/X122/X1337/X3/M0 X203/X122/17 X203/23 X203/X122/16 vdd3! PE3 L=2e-06 W=6e-06 m=1 
MX203/X122/X1338/X0/M0 X203/X122/15 X203/23 X203/X122/14 vdd3! PE3 L=2e-06 W=6e-06 m=1 
MX203/X122/X1338/X1/M0 X203/X122/17 X203/23 X203/X122/16 vdd3! PE3 L=2e-06 W=6e-06 m=1 
MX203/X122/X1338/X2/M0 X203/X122/15 X203/23 X203/X122/14 vdd3! PE3 L=2e-06 W=6e-06 m=1 
MX203/X122/X1338/X3/M0 X203/X122/17 X203/23 X203/X122/16 vdd3! PE3 L=2e-06 W=6e-06 m=1 
MX203/X122/X1339/X0/M0 X203/X122/19 X203/23 X203/X122/18 vdd3! PE3 L=2e-06 W=6e-06 m=1 
MX203/X122/X1339/X1/M0 X203/X122/19 X203/23 X203/X122/18 vdd3! PE3 L=2e-06 W=6e-06 m=1 
MX203/X122/X1339/X2/M0 X203/X122/19 X203/23 X203/X122/18 vdd3! PE3 L=2e-06 W=6e-06 m=1 
MX203/X122/X1339/X3/M0 X203/X122/19 X203/23 X203/X122/18 vdd3! PE3 L=2e-06 W=6e-06 m=1 
MX203/X122/X1340/X0/M0 X203/X122/19 X203/23 X203/X122/18 vdd3! PE3 L=2e-06 W=6e-06 m=1 
MX203/X122/X1340/X1/M0 X203/X122/19 X203/23 X203/X122/18 vdd3! PE3 L=2e-06 W=6e-06 m=1 
MX203/X122/X1340/X2/M0 X203/X122/19 X203/23 X203/X122/18 vdd3! PE3 L=2e-06 W=6e-06 m=1 
MX203/X122/X1340/X3/M0 X203/X122/19 X203/23 X203/X122/18 vdd3! PE3 L=2e-06 W=6e-06 m=1 
MX203/X122/X1341/X0/M0 X203/X122/19 X203/23 X203/X122/18 vdd3! PE3 L=2e-06 W=6e-06 m=1 
MX203/X122/X1341/X1/M0 X203/X122/17 X203/23 X203/X122/16 vdd3! PE3 L=2e-06 W=6e-06 m=1 
MX203/X122/X1341/X2/M0 X203/X122/19 X203/23 X203/X122/18 vdd3! PE3 L=2e-06 W=6e-06 m=1 
MX203/X122/X1341/X3/M0 X203/X122/17 X203/23 X203/X122/16 vdd3! PE3 L=2e-06 W=6e-06 m=1 
MX203/X122/X1342/X0/M0 X203/X122/19 X203/23 X203/X122/18 vdd3! PE3 L=2e-06 W=6e-06 m=1 
MX203/X122/X1342/X1/M0 X203/X122/17 X203/23 X203/X122/16 vdd3! PE3 L=2e-06 W=6e-06 m=1 
MX203/X122/X1342/X2/M0 X203/X122/19 X203/23 X203/X122/18 vdd3! PE3 L=2e-06 W=6e-06 m=1 
MX203/X122/X1342/X3/M0 X203/X122/17 X203/23 X203/X122/16 vdd3! PE3 L=2e-06 W=6e-06 m=1 
MX203/X122/X1343/X0/M0 X203/X122/19 X203/23 X203/X122/18 vdd3! PE3 L=2e-06 W=6e-06 m=1 
MX203/X122/X1343/X1/M0 X203/X122/19 X203/23 X203/X122/18 vdd3! PE3 L=2e-06 W=6e-06 m=1 
MX203/X122/X1343/X2/M0 X203/X122/19 X203/23 X203/X122/18 vdd3! PE3 L=2e-06 W=6e-06 m=1 
MX203/X122/X1343/X3/M0 X203/X122/19 X203/23 X203/X122/18 vdd3! PE3 L=2e-06 W=6e-06 m=1 
MX203/X122/X1344/X0/M0 X203/X122/18 X203/X122/20 vdd3! vdd3! PE3 L=2e-06 W=6e-06 m=1 
MX203/X122/X1344/X1/M0 X203/X122/18 X203/X122/20 vdd3! vdd3! PE3 L=2e-06 W=6e-06 m=1 
MX203/X122/X1344/X2/M0 X203/X122/18 X203/X122/20 vdd3! vdd3! PE3 L=2e-06 W=6e-06 m=1 
MX203/X122/X1344/X3/M0 X203/X122/18 X203/X122/20 vdd3! vdd3! PE3 L=2e-06 W=6e-06 m=1 
MX203/X122/X1345/X0/M0 X203/X122/16 X203/X122/20 vdd3! vdd3! PE3 L=2e-06 W=6e-06 m=1 
MX203/X122/X1345/X1/M0 X203/X122/18 X203/X122/20 vdd3! vdd3! PE3 L=2e-06 W=6e-06 m=1 
MX203/X122/X1345/X2/M0 X203/X122/16 X203/X122/20 vdd3! vdd3! PE3 L=2e-06 W=6e-06 m=1 
MX203/X122/X1345/X3/M0 X203/X122/18 X203/X122/20 vdd3! vdd3! PE3 L=2e-06 W=6e-06 m=1 
MX203/X122/X1346/X0/M0 X203/X122/16 X203/X122/20 vdd3! vdd3! PE3 L=2e-06 W=6e-06 m=1 
MX203/X122/X1346/X1/M0 X203/X122/18 X203/X122/20 vdd3! vdd3! PE3 L=2e-06 W=6e-06 m=1 
MX203/X122/X1346/X2/M0 X203/X122/16 X203/X122/20 vdd3! vdd3! PE3 L=2e-06 W=6e-06 m=1 
MX203/X122/X1346/X3/M0 X203/X122/18 X203/X122/20 vdd3! vdd3! PE3 L=2e-06 W=6e-06 m=1 
MX203/X122/X1347/X0/M0 X203/X122/18 X203/X122/20 vdd3! vdd3! PE3 L=2e-06 W=6e-06 m=1 
MX203/X122/X1347/X1/M0 X203/X122/18 X203/X122/20 vdd3! vdd3! PE3 L=2e-06 W=6e-06 m=1 
MX203/X122/X1347/X2/M0 X203/X122/18 X203/X122/20 vdd3! vdd3! PE3 L=2e-06 W=6e-06 m=1 
MX203/X122/X1347/X3/M0 X203/X122/18 X203/X122/20 vdd3! vdd3! PE3 L=2e-06 W=6e-06 m=1 
X203/X306/X0 X203/21 X203/21 gnd! gnd! LDDN w=8e-05 l=1.25e-06 m=1 $[LDDN] 
X203/X307/X0 X203/22 X203/22 X203/31 gnd! LDDN w=8e-05 l=1.25e-06 m=1 $[LDDN] 
X203/X308/X0 X203/31 X203/22 X203/21 gnd! LDDN w=3.5e-05 l=1.25e-06 m=1 $[LDDN] 
X203/X309/X0 X203/30 X203/32 X203/24 gnd! LDDN w=6e-05 l=1.25e-06 m=1 $[LDDN] 
X203/X309/X1 X203/30 X203/32 X203/24 gnd! LDDN w=6e-05 l=1.25e-06 m=1 $[LDDN] 
X203/X309/X2 X203/30 X203/32 X203/24 gnd! LDDN w=6e-05 l=1.25e-06 m=1 $[LDDN] 
X203/X309/X3 X203/30 X203/32 X203/24 gnd! LDDN w=6e-05 l=1.25e-06 m=1 $[LDDN] 
X203/X309/X4 X203/30 X203/32 X203/24 gnd! LDDN w=6e-05 l=1.25e-06 m=1 $[LDDN] 
MX203/X310/M0 X203/X310/8 Enable gnd! gnd! NE3 L=3.5e-07 W=4.2e-07 m=1 
MX203/X310/M1 gnd! X203/X310/8 X203/X310/6 gnd! NE3 L=3.5e-07 W=1.31e-06 m=1 
MX203/X310/M2 X203/X310/7 Enable gnd! gnd! NE3 L=3.5e-07 W=1.31e-06 m=1 
MX203/X310/M3 X203/32 X203/X310/7 gnd! gnd! NE3 L=3.5e-07 W=8.9e-07 m=1 
MX203/X310/M4 gnd! X203/X310/7 X203/32 gnd! NE3 L=3.5e-07 W=8.9e-07 m=1 
MX203/X310/M5 X203/X310/8 Enable vdde! vdd3! PE3 L=3.0008e-07 W=1.47627e-06 m=1 
MX203/X310/M6 X203/X310/10 X203/X310/7 vdd3! vdd3! PE3 L=3e-07 W=4.2e-07 m=1 
MX203/X310/M7 X203/X310/6 X203/X310/8 X203/X310/10 vdd3! PE3 L=3e-07 W=4.2e-07 m=1 
MX203/X310/M8 X203/X310/9 Enable X203/X310/7 vdd3! PE3 L=3e-07 W=4.2e-07 m=1 
MX203/X310/M9 vdd3! X203/X310/6 X203/X310/9 vdd3! PE3 L=3e-07 W=4.2e-07 m=1 
MX203/X310/M10 X203/32 X203/X310/7 vdd3! vdd3! PE3 L=3e-07 W=1.41e-06 m=1 
MX203/X310/M11 vdd3! X203/X310/7 X203/32 vdd3! PE3 L=3e-07 W=1.41e-06 m=1 
X203/X311/X0 X203/20 X203/20 X203/33 gnd! LDDN w=4e-05 l=1.25e-06 m=1 $[LDDN] 
X203/X312/X0 X203/22 X203/30 X203/27 gnd! LDDP w=3e-05 l=9.4e-07 m=1 $[LDDP] 
X203/X313/X0 X203/27 X203/28 vddh gnd! LDDP w=3e-05 l=9.4e-07 m=1 $[LDDP] 
X203/X314/X0 X203/30 X203/30 X203/28 gnd! LDDP w=3e-05 l=9.4e-07 m=1 $[LDDP] 
X203/X315/X0 X203/28 X203/28 vddh gnd! LDDP w=3e-05 l=9.4e-07 m=1 $[LDDP] 
X203/X316/X0 X203/20 X203/30 X203/29 gnd! LDDP w=3e-05 l=9.4e-07 m=1 $[LDDP] 
X203/X317/X0 X203/29 X203/28 vddh gnd! LDDP w=3e-05 l=9.4e-07 m=1 $[LDDP] 
X203/X318/X0 X203/24 X203/19 gnd! gnd! LDDN w=1e-05 l=1.25e-06 m=1 $[LDDN] 