// Generated for: spectre
// Generated on: Mar 15 11:56:15 2021
// Design library name: Stimulator_TestBench
// Design cell name: TB_LS_HighSide_ST
// Design view name: schematic
simulator lang=spectre
global 0 vdde! vdd3!
