// Generated for: spectre
// Generated on: Mar 23 10:59:45 2021
// Design library name: Stimulator_TestBench
// Design cell name: TB_LS_HighSide_ST
// Design view name: schematic
simulator lang=spectre
global 0 vdd3! vdde!
