// Generated for: spectre
// Generated on: Mar 30 16:38:26 2021
// Design library name: Stimulator_TestBench
// Design cell name: TB_PowerON_Protection_imp
// Design view name: schematic
simulator lang=spectre
global 0 vdd3! vdde!
