// Generated for: spectre
// Generated on: Apr 15 11:23:07 2021
// Design library name: Stimulator_TestBench
// Design cell name: TB_PowerON_Protection_imp
// Design view name: schematic
simulator lang=spectre
global 0 vdd3! vdde!
