// Generated for: spectre
// Generated on: Nov 16 22:21:41 2020
// Design library name: EMG_TestBench
// Design cell name: TB_BPF_EMG
// Design view name: config
simulator lang=spectre binding=vlog  
global 0
