// Generated for: spectre
// Generated on: Sep 21 13:42:27 2020
// Design library name: EMG_202009
// Design cell name: TB_IA
// Design view name: config
simulator lang=spectre
global 0
